REMARK VINA RESULT:     -10.4      0.000      0.000
REMARK  13 active torsions:
REMARK  status: ('A' for Active; 'I' for Inactive)
REMARK    1  A    between atoms: C09_48  and  C10_1 
REMARK    2  A    between atoms: C13_6  and  C20_10 
REMARK    3  A    between atoms: C15_9  and  C16_44 
REMARK       I    between atoms: C20_10  and  N21_11 
REMARK    4  A    between atoms: C22_14  and  N21_11 
REMARK    5  A    between atoms: C27_16  and  O29_23 
REMARK    6  A    between atoms: C25_18  and  C26_40 
REMARK    7  A    between atoms: C30_24  and  O29_23 
REMARK    8  A    between atoms: C3_36  and  C35_34 
REMARK    9  A    between atoms: C1_42  and  C26_40 
REMARK   10  A    between atoms: C2_41  and  C26_40 
REMARK   11  A    between atoms: C09_48  and  N06_51 
REMARK   12  A    between atoms: C02_65  and  N03_56 
REMARK   13  A    between atoms: C01_68  and  C02_65 
REMARK viewdock state: V
HETATM    1  C20 DI1 A1000      -6.739   4.230 -40.260  1.00 35.22     0.256 C 
HETATM    2  N21 DI1 A1000      -6.517   5.385 -39.597  1.00 33.72    -0.323 N 
HETATM    3  H21 DI1 A1000      -7.301   6.034 -39.533  1.00  0.00     0.169 HD
HETATM    4  O40 DI1 A1000      -5.847   3.472 -40.605  1.00 34.16    -0.267 OA
HETATM    5  C13 DI1 A1000      -8.143   3.974 -40.678  1.00 33.40     0.033 A 
HETATM    6  C12 DI1 A1000      -8.775   2.741 -40.641  1.00 34.49    -0.067 A 
HETATM    7  C11 DI1 A1000     -10.061   2.602 -41.122  1.00 31.89    -0.073 A 
HETATM    8  H12 DI1 A1000      -8.248   1.866 -40.223  1.00  0.00     0.085 H 
HETATM    9  C10 DI1 A1000     -10.737   3.683 -41.668  1.00 31.19    -0.015 A 
HETATM   10  H11 DI1 A1000     -10.557   1.618 -41.070  1.00  0.00     0.084 H 
HETATM   11  C15 DI1 A1000     -10.093   4.917 -41.737  1.00 31.14     0.056 A 
HETATM   12  C14 DI1 A1000      -8.806   5.054 -41.239  1.00 32.40    -0.052 A 
HETATM   13  H14 DI1 A1000      -8.301   6.035 -41.291  1.00  0.00     0.086 H 
HETATM   14  C09 DI1 A1000     -12.166   3.533 -42.125  1.00 31.99     0.138 C 
HETATM   15 1H09 DI1 A1000     -12.343   4.071 -43.086  1.00  0.00     0.087 H 
HETATM   16 2H09 DI1 A1000     -12.862   4.107 -41.470  1.00  0.00     0.087 H 
HETATM   17  N06 DI1 A1000     -12.569   2.130 -42.223  1.00 31.70     0.096 N 
HETATM   18  C05 DI1 A1000     -12.353   1.596 -43.572  1.00 31.38     0.138 C 
HETATM   19 1H05 DI1 A1000     -12.885   2.199 -44.346  1.00  0.00     0.082 H 
HETATM   20 2H05 DI1 A1000     -11.308   1.761 -43.923  1.00  0.00     0.082 H 
HETATM   21  C04 DI1 A1000     -12.745   0.130 -43.631  1.00 30.37     0.138 C 
HETATM   22 1H04 DI1 A1000     -12.563  -0.305 -44.642  1.00  0.00     0.082 H 
HETATM   23 2H04 DI1 A1000     -12.043  -0.509 -43.045  1.00  0.00     0.082 H 
HETATM   24  N03 DI1 A1000     -14.135  -0.053 -43.202  1.00 33.96     0.091 N 
HETATM   25  C08 DI1 A1000     -14.320   0.499 -41.855  1.00 32.34     0.138 C 
HETATM   26 1H08 DI1 A1000     -15.351   0.321 -41.474  1.00  0.00     0.082 H 
HETATM   27 2H08 DI1 A1000     -13.756  -0.083 -41.089  1.00  0.00     0.082 H 
HETATM   28  C07 DI1 A1000     -13.961   1.950 -41.828  1.00 31.73     0.138 C 
HETATM   29 1H07 DI1 A1000     -14.176   2.414 -40.837  1.00  0.00     0.082 H 
HETATM   30 2H07 DI1 A1000     -14.655   2.563 -42.450  1.00  0.00     0.082 H 
HETATM   31  C02 DI1 A1000     -14.479  -1.473 -43.170  1.00 36.77     0.110 C 
HETATM   32 1H02 DI1 A1000     -15.029  -1.752 -44.098  1.00  0.00     0.079 H 
HETATM   33 2H02 DI1 A1000     -13.557  -2.089 -43.292  1.00  0.00     0.079 H 
HETATM   34  C01 DI1 A1000     -15.232  -1.922 -41.983  1.00 38.92    -0.051 C 
HETATM   35 1H01 DI1 A1000     -15.319  -3.026 -41.854  1.00  0.00     0.029 H 
HETATM   36 2H01 DI1 A1000     -16.246  -1.458 -41.979  1.00  0.00     0.029 H 
HETATM   37 3H01 DI1 A1000     -14.800  -1.463 -41.063  1.00  0.00     0.029 H 
HETATM   38  C16 DI1 A1000     -10.759   6.126 -42.298  1.00 34.07     0.418 C 
HETATM   39  F19 DI1 A1000     -10.213   6.537 -43.349  1.00 32.66    -0.166 F 
HETATM   40  F17 DI1 A1000     -10.740   7.097 -41.502  1.00 35.34    -0.166 F 
HETATM   41  F18 DI1 A1000     -11.984   5.929 -42.615  1.00 34.55    -0.166 F 
HETATM   42  C22 DI1 A1000      -5.309   5.788 -38.983  1.00 30.76     0.037 A 
HETATM   43  C28 DI1 A1000      -5.269   7.022 -38.362  1.00 29.62    -0.024 A 
HETATM   44  C27 DI1 A1000      -4.095   7.474 -37.801  1.00 29.96     0.085 A 
HETATM   45  H28 DI1 A1000      -6.177   7.647 -38.315  1.00  0.00     0.091 H 
HETATM   46  C25 DI1 A1000      -2.937   6.693 -37.823  1.00 30.34    -0.020 A 
HETATM   47  C24 DI1 A1000      -3.015   5.438 -38.403  1.00 31.32    -0.072 A 
HETATM   48  C23 DI1 A1000      -4.180   4.989 -38.990  1.00 30.63    -0.056 A 
HETATM   49  H24 DI1 A1000      -2.128   4.784 -38.395  1.00  0.00     0.084 H 
HETATM   50  H23 DI1 A1000      -4.210   3.994 -39.465  1.00  0.00     0.086 H 
HETATM   51  O29 DI1 A1000      -4.233   8.793 -37.524  1.00 30.38    -0.310 OA
HETATM   52  C30 DI1 A1000      -4.715   9.458 -36.437  1.00 34.16     0.076 A 
HETATM   53  C39 DI1 A1000      -5.544   8.816 -35.530  1.00 33.39    -0.041 A 
HETATM   54  C34 DI1 A1000      -5.758   9.398 -34.295  1.00 31.98    -0.016 A 
HETATM   55  H39 DI1 A1000      -6.025   7.857 -35.790  1.00  0.00     0.088 H 
HETATM   56  C33 DI1 A1000      -5.147  10.610 -33.989  1.00 33.51     0.042 A 
HETATM   57  C35 DI1 A1000      -6.586   8.994 -33.117  1.00 32.48     0.051 A 
HETATM   58  C32 DI1 A1000      -4.327  11.243 -34.898  1.00 36.25    -0.054 A 
HETATM   59  N37 DI1 A1000      -5.522  11.005 -32.720  1.00 35.18    -0.326 N 
HETATM   60  C31 DI1 A1000      -4.127  10.668 -36.136  1.00 33.93    -0.048 A 
HETATM   61  H32 DI1 A1000      -3.839  12.198 -34.639  1.00  0.00     0.087 H 
HETATM   62  H31 DI1 A1000      -3.498  11.176 -36.885  1.00  0.00     0.087 H 
HETATM   63  C36 DI1 A1000      -6.352  10.104 -32.133  1.00 33.97     0.230 A 
HETATM   64  H37 DI1 A1000      -5.213  11.870 -32.277  1.00  0.00     0.169 HD
HETATM   65  O38 DI1 A1000      -6.803  10.197 -31.008  1.00 41.19    -0.272 OA
HETATM   66 1H35 DI1 A1000      -6.366   7.974 -32.725  1.00  0.00     0.062 H 
HETATM   67  C3  DI1 A1000      -8.054   8.728 -33.435  1.00  0.00    -0.049 C 
HETATM   68  H4  DI1 A1000      -8.364   7.751 -33.774  1.00  0.00     0.034 H 
HETATM   69  H1  DI1 A1000      -8.782   9.516 -33.321  1.00  0.00     0.034 H 
HETATM   70  C26 DI1 A1000      -1.642   7.189 -37.246  1.00 31.24    -0.026 C 
HETATM   71 1H26 DI1 A1000      -1.278   8.218 -37.470  1.00  0.00     0.047 H 
HETATM   72  C1  DI1 A1000      -0.544   6.201 -37.624  1.00  0.00    -0.057 C 
HETATM   73  H1  DI1 A1000       0.317   6.538 -38.183  1.00  0.00     0.034 H 
HETATM   74  H2  DI1 A1000      -0.626   5.165 -37.332  1.00  0.00     0.034 H 
HETATM   75  C2  DI1 A1000      -1.699   7.022 -35.731  1.00  0.00    -0.057 C 
HETATM   76  H1  DI1 A1000      -1.124   6.245 -35.252  1.00  0.00     0.034 H 
HETATM   77  H3  DI1 A1000      -2.316   7.683 -35.139  1.00  0.00     0.034 H 
ENDMDL
REMARK VINA RESULT:      -9.8      7.212     11.193
REMARK  13 active torsions:
REMARK  status: ('A' for Active; 'I' for Inactive)
REMARK    1  A    between atoms: C09_48  and  C10_1 
REMARK    2  A    between atoms: C13_6  and  C20_10 
REMARK    3  A    between atoms: C15_9  and  C16_44 
REMARK       I    between atoms: C20_10  and  N21_11 
REMARK    4  A    between atoms: C22_14  and  N21_11 
REMARK    5  A    between atoms: C27_16  and  O29_23 
REMARK    6  A    between atoms: C25_18  and  C26_40 
REMARK    7  A    between atoms: C30_24  and  O29_23 
REMARK    8  A    between atoms: C3_36  and  C35_34 
REMARK    9  A    between atoms: C1_42  and  C26_40 
REMARK   10  A    between atoms: C2_41  and  C26_40 
REMARK   11  A    between atoms: C09_48  and  N06_51 
REMARK   12  A    between atoms: C02_65  and  N03_56 
REMARK   13  A    between atoms: C01_68  and  C02_65 
REMARK viewdock state: V
HETATM    1  C20 DI1 A1000      -3.985   5.596 -31.616  1.00 35.22     0.256 C 
HETATM    2  N21 DI1 A1000      -3.963   6.677 -32.426  1.00 33.72    -0.323 N 
HETATM    3  H21 DI1 A1000      -4.741   7.330 -32.339  1.00  0.00     0.169 HD
HETATM    4  O40 DI1 A1000      -3.251   4.633 -31.763  1.00 34.16    -0.267 OA
HETATM    5  C13 DI1 A1000      -5.058   5.571 -30.586  1.00 33.40     0.033 A 
HETATM    6  C12 DI1 A1000      -6.295   6.185 -30.706  1.00 34.49    -0.067 A 
HETATM    7  C11 DI1 A1000      -7.190   6.159 -29.656  1.00 31.89    -0.073 A 
HETATM    8  H12 DI1 A1000      -6.566   6.696 -31.646  1.00  0.00     0.085 H 
HETATM    9  C10 DI1 A1000      -6.866   5.539 -28.459  1.00 31.19    -0.015 A 
HETATM   10  H11 DI1 A1000      -8.177   6.638 -29.772  1.00  0.00     0.084 H 
HETATM   11  C15 DI1 A1000      -5.610   4.948 -28.323  1.00 31.14     0.056 A 
HETATM   12  C14 DI1 A1000      -4.719   4.965 -29.386  1.00 32.40    -0.052 A 
HETATM   13  H14 DI1 A1000      -3.728   4.491 -29.277  1.00  0.00     0.086 H 
HETATM   14  C09 DI1 A1000      -7.880   5.458 -27.346  1.00 31.99     0.138 C 
HETATM   15 1H09 DI1 A1000      -8.082   6.464 -26.908  1.00  0.00     0.087 H 
HETATM   16 2H09 DI1 A1000      -7.453   4.956 -26.447  1.00  0.00     0.087 H 
HETATM   17  N06 DI1 A1000      -9.117   4.809 -27.776  1.00 31.70     0.096 N 
HETATM   18  C05 DI1 A1000     -10.143   4.847 -26.727  1.00 31.38     0.138 C 
HETATM   19 1H05 DI1 A1000      -9.781   4.385 -25.777  1.00  0.00     0.082 H 
HETATM   20 2H05 DI1 A1000     -10.317   5.883 -26.352  1.00  0.00     0.082 H 
HETATM   21  C04 DI1 A1000     -11.426   4.200 -27.216  1.00 30.37     0.138 C 
HETATM   22 1H04 DI1 A1000     -12.231   4.242 -26.444  1.00  0.00     0.082 H 
HETATM   23 2H04 DI1 A1000     -11.922   4.810 -28.007  1.00  0.00     0.082 H 
HETATM   24  N03 DI1 A1000     -11.176   2.826 -27.665  1.00 33.96     0.091 N 
HETATM   25  C08 DI1 A1000     -10.141   2.821 -28.705  1.00 32.34     0.138 C 
HETATM   26 1H08 DI1 A1000      -9.970   1.798 -29.113  1.00  0.00     0.082 H 
HETATM   27 2H08 DI1 A1000     -10.492   3.317 -29.641  1.00  0.00     0.082 H 
HETATM   28  C07 DI1 A1000      -8.876   3.432 -28.192  1.00 31.73     0.138 C 
HETATM   29 1H07 DI1 A1000      -8.048   3.360 -28.934  1.00  0.00     0.082 H 
HETATM   30 2H07 DI1 A1000      -8.420   2.822 -27.377  1.00  0.00     0.082 H 
HETATM   31  C02 DI1 A1000     -12.393   2.239 -28.222  1.00 36.77     0.110 C 
HETATM   32 1H02 DI1 A1000     -13.016   1.808 -27.404  1.00  0.00     0.079 H 
HETATM   33 2H02 DI1 A1000     -13.072   3.046 -28.585  1.00  0.00     0.079 H 
HETATM   34  C01 DI1 A1000     -12.190   1.235 -29.284  1.00 38.92    -0.051 C 
HETATM   35 1H01 DI1 A1000     -12.447   0.184 -29.012  1.00  0.00     0.029 H 
HETATM   36 2H01 DI1 A1000     -11.140   1.285 -29.658  1.00  0.00     0.029 H 
HETATM   37 3H01 DI1 A1000     -12.743   1.537 -30.204  1.00  0.00     0.029 H 
HETATM   38  C16 DI1 A1000      -5.194   4.253 -27.073  1.00 34.07     0.418 C 
HETATM   39  F19 DI1 A1000      -4.022   3.812 -27.129  1.00 32.66    -0.166 F 
HETATM   40  F17 DI1 A1000      -5.920   3.263 -26.811  1.00 35.34    -0.166 F 
HETATM   41  F18 DI1 A1000      -5.214   5.012 -26.041  1.00 34.55    -0.166 F 
HETATM   42  C22 DI1 A1000      -2.972   6.996 -33.381  1.00 30.76     0.037 A 
HETATM   43  C28 DI1 A1000      -3.375   7.519 -34.596  1.00 29.62    -0.024 A 
HETATM   44  C27 DI1 A1000      -2.444   7.791 -35.573  1.00 29.96     0.085 A 
HETATM   45  H28 DI1 A1000      -4.444   7.719 -34.783  1.00  0.00     0.091 H 
HETATM   46  C25 DI1 A1000      -1.082   7.571 -35.354  1.00 30.34    -0.020 A 
HETATM   47  C24 DI1 A1000      -0.696   7.099 -34.111  1.00 31.32    -0.072 A 
HETATM   48  C23 DI1 A1000      -1.625   6.800 -33.135  1.00 30.63    -0.056 A 
HETATM   49  H24 DI1 A1000       0.376   6.959 -33.896  1.00  0.00     0.084 H 
HETATM   50  H23 DI1 A1000      -1.293   6.403 -32.161  1.00  0.00     0.086 H 
HETATM   51  O29 DI1 A1000      -3.098   8.010 -36.739  1.00 30.38    -0.310 OA
HETATM   52  C30 DI1 A1000      -3.355   7.212 -37.812  1.00 34.16     0.076 A 
HETATM   53  C39 DI1 A1000      -2.843   5.925 -37.871  1.00 33.39    -0.041 A 
HETATM   54  C34 DI1 A1000      -3.367   5.041 -38.795  1.00 31.98    -0.016 A 
HETATM   55  H39 DI1 A1000      -2.032   5.612 -37.192  1.00  0.00     0.088 H 
HETATM   56  C33 DI1 A1000      -4.386   5.456 -39.646  1.00 33.51     0.042 A 
HETATM   57  C35 DI1 A1000      -3.044   3.620 -39.130  1.00 32.48     0.051 A 
HETATM   58  C32 DI1 A1000      -4.887   6.739 -39.584  1.00 36.25    -0.054 A 
HETATM   59  N37 DI1 A1000      -4.731   4.419 -40.490  1.00 35.18    -0.326 N 
HETATM   60  C31 DI1 A1000      -4.352   7.624 -38.671  1.00 33.93    -0.048 A 
HETATM   61  H32 DI1 A1000      -5.703   7.053 -40.256  1.00  0.00     0.087 H 
HETATM   62  H31 DI1 A1000      -4.722   8.663 -38.628  1.00  0.00     0.087 H 
HETATM   63  C36 DI1 A1000      -4.002   3.300 -40.241  1.00 33.97     0.230 A 
HETATM   64  H37 DI1 A1000      -5.446   4.486 -41.214  1.00  0.00     0.169 HD
HETATM   65  O38 DI1 A1000      -4.128   2.240 -40.821  1.00 41.19    -0.272 OA
HETATM   66 1H35 DI1 A1000      -3.089   2.919 -38.264  1.00  0.00     0.062 H 
HETATM   67  C3  DI1 A1000      -1.578   3.365 -39.463  1.00  0.00    -0.049 C 
HETATM   68  H4  DI1 A1000      -1.212   2.352 -39.548  1.00  0.00     0.034 H 
HETATM   69  H1  DI1 A1000      -0.906   4.196 -39.615  1.00  0.00     0.034 H 
HETATM   70  C26 DI1 A1000      -0.060   7.830 -36.423  1.00 31.24    -0.026 C 
HETATM   71 1H26 DI1 A1000      -0.263   8.566 -37.235  1.00  0.00     0.047 H 
HETATM   72  C1  DI1 A1000       0.305   6.497 -37.066  1.00  0.00    -0.057 C 
HETATM   73  H1  DI1 A1000       1.237   6.392 -37.601  1.00  0.00     0.034 H 
HETATM   74  H2  DI1 A1000      -0.370   5.658 -36.987  1.00  0.00     0.034 H 
HETATM   75  C2  DI1 A1000       1.252   8.216 -35.747  1.00  0.00    -0.057 C 
HETATM   76  H1  DI1 A1000       1.447   9.249 -35.500  1.00  0.00     0.034 H 
HETATM   77  H3  DI1 A1000       1.984   7.457 -35.517  1.00  0.00     0.034 H 
ENDMDL
REMARK VINA RESULT:      -9.8      1.506      2.093
REMARK  13 active torsions:
REMARK  status: ('A' for Active; 'I' for Inactive)
REMARK    1  A    between atoms: C09_48  and  C10_1 
REMARK    2  A    between atoms: C13_6  and  C20_10 
REMARK    3  A    between atoms: C15_9  and  C16_44 
REMARK       I    between atoms: C20_10  and  N21_11 
REMARK    4  A    between atoms: C22_14  and  N21_11 
REMARK    5  A    between atoms: C27_16  and  O29_23 
REMARK    6  A    between atoms: C25_18  and  C26_40 
REMARK    7  A    between atoms: C30_24  and  O29_23 
REMARK    8  A    between atoms: C3_36  and  C35_34 
REMARK    9  A    between atoms: C1_42  and  C26_40 
REMARK   10  A    between atoms: C2_41  and  C26_40 
REMARK   11  A    between atoms: C09_48  and  N06_51 
REMARK   12  A    between atoms: C02_65  and  N03_56 
REMARK   13  A    between atoms: C01_68  and  C02_65 
REMARK viewdock state: V
HETATM    1  C20 DI1 A1000      -6.644   4.217 -40.237  1.00 35.22     0.256 C 
HETATM    2  N21 DI1 A1000      -6.411   5.388 -39.608  1.00 33.72    -0.323 N 
HETATM    3  H21 DI1 A1000      -7.171   6.068 -39.609  1.00  0.00     0.169 HD
HETATM    4  O40 DI1 A1000      -5.766   3.413 -40.506  1.00 34.16    -0.267 OA
HETATM    5  C13 DI1 A1000      -8.034   3.996 -40.717  1.00 33.40     0.033 A 
HETATM    6  C12 DI1 A1000      -8.675   2.768 -40.772  1.00 34.49    -0.067 A 
HETATM    7  C11 DI1 A1000      -9.945   2.668 -41.304  1.00 31.89    -0.073 A 
HETATM    8  H12 DI1 A1000      -8.169   1.867 -40.387  1.00  0.00     0.085 H 
HETATM    9  C10 DI1 A1000     -10.594   3.783 -41.811  1.00 31.19    -0.015 A 
HETATM   10  H11 DI1 A1000     -10.448   1.687 -41.326  1.00  0.00     0.084 H 
HETATM   11  C15 DI1 A1000      -9.940   5.015 -41.787  1.00 31.14     0.056 A 
HETATM   12  C14 DI1 A1000      -8.670   5.112 -41.239  1.00 32.40    -0.052 A 
HETATM   13  H14 DI1 A1000      -8.158   6.090 -41.216  1.00  0.00     0.086 H 
HETATM   14  C09 DI1 A1000     -12.007   3.672 -42.325  1.00 31.99     0.138 C 
HETATM   15 1H09 DI1 A1000     -12.091   4.061 -43.368  1.00  0.00     0.087 H 
HETATM   16 2H09 DI1 A1000     -12.682   4.395 -41.812  1.00  0.00     0.087 H 
HETATM   17  N06 DI1 A1000     -12.522   2.307 -42.227  1.00 31.70     0.096 N 
HETATM   18  C05 DI1 A1000     -12.382   1.580 -43.494  1.00 31.38     0.138 C 
HETATM   19 1H05 DI1 A1000     -12.882   2.115 -44.335  1.00  0.00     0.082 H 
HETATM   20 2H05 DI1 A1000     -11.335   1.610 -43.877  1.00  0.00     0.082 H 
HETATM   21  C04 DI1 A1000     -12.890   0.157 -43.348  1.00 30.37     0.138 C 
HETATM   22 1H04 DI1 A1000     -12.768  -0.424 -44.292  1.00  0.00     0.082 H 
HETATM   23 2H04 DI1 A1000     -12.229  -0.453 -42.689  1.00  0.00     0.082 H 
HETATM   24  N03 DI1 A1000     -14.281   0.148 -42.881  1.00 33.96     0.091 N 
HETATM   25  C08 DI1 A1000     -14.390   0.889 -41.620  1.00 32.34     0.138 C 
HETATM   26 1H08 DI1 A1000     -15.423   0.850 -41.205  1.00  0.00     0.082 H 
HETATM   27 2H08 DI1 A1000     -13.856   0.372 -40.788  1.00  0.00     0.082 H 
HETATM   28  C07 DI1 A1000     -13.915   2.297 -41.794  1.00 31.73     0.138 C 
HETATM   29 1H07 DI1 A1000     -14.069   2.905 -40.873  1.00  0.00     0.082 H 
HETATM   30 2H07 DI1 A1000     -14.572   2.875 -42.485  1.00  0.00     0.082 H 
HETATM   31  C02 DI1 A1000     -14.736  -1.222 -42.652  1.00 36.77     0.110 C 
HETATM   32 1H02 DI1 A1000     -14.482  -1.538 -41.613  1.00  0.00     0.079 H 
HETATM   33 2H02 DI1 A1000     -15.850  -1.248 -42.601  1.00  0.00     0.079 H 
HETATM   34  C01 DI1 A1000     -14.252  -2.226 -43.618  1.00 38.92    -0.051 C 
HETATM   35 1H01 DI1 A1000     -13.742  -3.115 -43.177  1.00  0.00     0.029 H 
HETATM   36 2H01 DI1 A1000     -13.585  -1.740 -44.369  1.00  0.00     0.029 H 
HETATM   37 3H01 DI1 A1000     -15.088  -2.554 -44.278  1.00  0.00     0.029 H 
HETATM   38  C16 DI1 A1000     -10.578   6.259 -42.302  1.00 34.07     0.418 C 
HETATM   39  F19 DI1 A1000      -9.981   6.735 -43.296  1.00 32.66    -0.166 F 
HETATM   40  F17 DI1 A1000     -10.600   7.176 -41.444  1.00 35.34    -0.166 F 
HETATM   41  F18 DI1 A1000     -11.786   6.085 -42.691  1.00 34.55    -0.166 F 
HETATM   42  C22 DI1 A1000      -5.221   5.770 -38.947  1.00 30.76     0.037 A 
HETATM   43  C28 DI1 A1000      -5.316   6.624 -37.864  1.00 29.62    -0.024 A 
HETATM   44  C27 DI1 A1000      -4.176   7.063 -37.229  1.00 29.96     0.085 A 
HETATM   45  H28 DI1 A1000      -6.307   6.954 -37.507  1.00  0.00     0.091 H 
HETATM   46  C25 DI1 A1000      -2.911   6.640 -37.644  1.00 30.34    -0.020 A 
HETATM   47  C24 DI1 A1000      -2.842   5.743 -38.696  1.00 31.32    -0.072 A 
HETATM   48  C23 DI1 A1000      -3.978   5.318 -39.354  1.00 30.63    -0.056 A 
HETATM   49  H24 DI1 A1000      -1.860   5.360 -39.015  1.00  0.00     0.084 H 
HETATM   50  H23 DI1 A1000      -3.895   4.620 -40.204  1.00  0.00     0.086 H 
HETATM   51  O29 DI1 A1000      -4.510   8.090 -36.412  1.00 30.38    -0.310 OA
HETATM   52  C30 DI1 A1000      -4.096   8.442 -35.163  1.00 34.16     0.076 A 
HETATM   53  C39 DI1 A1000      -3.179   9.466 -34.987  1.00 33.39    -0.041 A 
HETATM   54  C34 DI1 A1000      -3.019  10.010 -33.727  1.00 31.98    -0.016 A 
HETATM   55  H39 DI1 A1000      -2.587   9.842 -35.840  1.00  0.00     0.088 H 
HETATM   56  C33 DI1 A1000      -3.771   9.519 -32.665  1.00 33.51     0.042 A 
HETATM   57  C35 DI1 A1000      -2.128  11.087 -33.197  1.00 32.48     0.051 A 
HETATM   58  C32 DI1 A1000      -4.678   8.497 -32.846  1.00 36.25    -0.054 A 
HETATM   59  N37 DI1 A1000      -3.428  10.193 -31.509  1.00 35.18    -0.326 N 
HETATM   60  C31 DI1 A1000      -4.825   7.946 -34.102  1.00 33.93    -0.048 A 
HETATM   61  H32 DI1 A1000      -5.277   8.124 -31.998  1.00  0.00     0.087 H 
HETATM   62  H31 DI1 A1000      -5.526   7.109 -34.259  1.00  0.00     0.087 H 
HETATM   63  C36 DI1 A1000      -2.482  11.142 -31.738  1.00 33.97     0.230 A 
HETATM   64  H37 DI1 A1000      -3.835  10.001 -30.593  1.00  0.00     0.169 HD
HETATM   65  O38 DI1 A1000      -2.028  11.894 -30.899  1.00 41.19    -0.272 OA
HETATM   66 1H35 DI1 A1000      -2.213  12.062 -33.730  1.00  0.00     0.062 H 
HETATM   67  C3  DI1 A1000      -0.644  10.880 -33.481  1.00  0.00    -0.049 C 
HETATM   68  H4  DI1 A1000      -0.019  11.725 -33.728  1.00  0.00     0.034 H 
HETATM   69  H1  DI1 A1000      -0.219   9.888 -33.436  1.00  0.00     0.034 H 
HETATM   70  C26 DI1 A1000      -1.658   7.139 -36.983  1.00 31.24    -0.026 C 
HETATM   71 1H26 DI1 A1000      -1.574   8.200 -36.653  1.00  0.00     0.047 H 
HETATM   72  C1  DI1 A1000      -0.480   6.829 -37.899  1.00  0.00    -0.057 C 
HETATM   73  H1  DI1 A1000      -0.587   6.100 -38.689  1.00  0.00     0.034 H 
HETATM   74  H2  DI1 A1000       0.462   7.339 -37.759  1.00  0.00     0.034 H 
HETATM   75  C2  DI1 A1000      -1.361   6.243 -35.785  1.00  0.00    -0.057 C 
HETATM   76  H1  DI1 A1000      -1.397   6.650 -34.786  1.00  0.00     0.034 H 
HETATM   77  H3  DI1 A1000      -1.115   5.203 -35.937  1.00  0.00     0.034 H 
ENDMDL
REMARK VINA RESULT:      -9.4      6.529     10.297
REMARK  13 active torsions:
REMARK  status: ('A' for Active; 'I' for Inactive)
REMARK    1  A    between atoms: C09_48  and  C10_1 
REMARK    2  A    between atoms: C13_6  and  C20_10 
REMARK    3  A    between atoms: C15_9  and  C16_44 
REMARK       I    between atoms: C20_10  and  N21_11 
REMARK    4  A    between atoms: C22_14  and  N21_11 
REMARK    5  A    between atoms: C27_16  and  O29_23 
REMARK    6  A    between atoms: C25_18  and  C26_40 
REMARK    7  A    between atoms: C30_24  and  O29_23 
REMARK    8  A    between atoms: C3_36  and  C35_34 
REMARK    9  A    between atoms: C1_42  and  C26_40 
REMARK   10  A    between atoms: C2_41  and  C26_40 
REMARK   11  A    between atoms: C09_48  and  N06_51 
REMARK   12  A    between atoms: C02_65  and  N03_56 
REMARK   13  A    between atoms: C01_68  and  C02_65 
REMARK viewdock state: V
HETATM    1  C20 DI1 A1000      -5.537   8.378 -31.695  1.00 35.22     0.256 C 
HETATM    2  N21 DI1 A1000      -6.082   9.613 -31.742  1.00 33.72    -0.323 N 
HETATM    3  H21 DI1 A1000      -5.772  10.221 -32.500  1.00  0.00     0.169 HD
HETATM    4  O40 DI1 A1000      -5.642   7.634 -30.734  1.00 34.16    -0.267 OA
HETATM    5  C13 DI1 A1000      -4.673   7.999 -32.845  1.00 33.40     0.033 A 
HETATM    6  C12 DI1 A1000      -3.458   7.339 -32.747  1.00 34.49    -0.067 A 
HETATM    7  C11 DI1 A1000      -2.702   7.100 -33.877  1.00 31.89    -0.073 A 
HETATM    8  H12 DI1 A1000      -3.094   7.001 -31.762  1.00  0.00     0.085 H 
HETATM    9  C10 DI1 A1000      -3.129   7.531 -35.123  1.00 31.19    -0.015 A 
HETATM   10  H11 DI1 A1000      -1.744   6.559 -33.785  1.00  0.00     0.084 H 
HETATM   11  C15 DI1 A1000      -4.335   8.223 -35.222  1.00 31.14     0.056 A 
HETATM   12  C14 DI1 A1000      -5.098   8.449 -34.085  1.00 32.40    -0.052 A 
HETATM   13  H14 DI1 A1000      -6.055   8.992 -34.168  1.00  0.00     0.086 H 
HETATM   14  C09 DI1 A1000      -2.327   7.202 -36.357  1.00 31.99     0.138 C 
HETATM   15 1H09 DI1 A1000      -1.233   7.194 -36.139  1.00  0.00     0.087 H 
HETATM   16 2H09 DI1 A1000      -2.354   8.040 -37.092  1.00  0.00     0.087 H 
HETATM   17  N06 DI1 A1000      -2.753   5.946 -36.972  1.00 31.70     0.096 N 
HETATM   18  C05 DI1 A1000      -1.772   4.875 -36.758  1.00 31.38     0.138 C 
HETATM   19 1H05 DI1 A1000      -0.761   5.160 -37.136  1.00  0.00     0.082 H 
HETATM   20 2H05 DI1 A1000      -1.517   4.753 -35.680  1.00  0.00     0.082 H 
HETATM   21  C04 DI1 A1000      -2.260   3.577 -37.375  1.00 30.37     0.138 C 
HETATM   22 1H04 DI1 A1000      -1.542   2.741 -37.201  1.00  0.00     0.082 H 
HETATM   23 2H04 DI1 A1000      -3.136   3.162 -36.825  1.00  0.00     0.082 H 
HETATM   24  N03 DI1 A1000      -2.549   3.757 -38.802  1.00 33.96     0.091 N 
HETATM   25  C08 DI1 A1000      -3.525   4.838 -38.982  1.00 32.34     0.138 C 
HETATM   26 1H08 DI1 A1000      -3.814   4.960 -40.051  1.00  0.00     0.082 H 
HETATM   27 2H08 DI1 A1000      -4.525   4.566 -38.569  1.00  0.00     0.082 H 
HETATM   28  C07 DI1 A1000      -3.010   6.114 -38.398  1.00 31.73     0.138 C 
HETATM   29 1H07 DI1 A1000      -3.694   6.970 -38.599  1.00  0.00     0.082 H 
HETATM   30 2H07 DI1 A1000      -2.112   6.489 -38.943  1.00  0.00     0.082 H 
HETATM   31  C02 DI1 A1000      -3.108   2.532 -39.370  1.00 36.77     0.110 C 
HETATM   32 1H02 DI1 A1000      -3.134   1.731 -38.595  1.00  0.00     0.079 H 
HETATM   33 2H02 DI1 A1000      -4.199   2.664 -39.558  1.00  0.00     0.079 H 
HETATM   34  C01 DI1 A1000      -2.443   2.032 -40.589  1.00 38.92    -0.051 C 
HETATM   35 1H01 DI1 A1000      -2.930   1.157 -41.082  1.00  0.00     0.029 H 
HETATM   36 2H01 DI1 A1000      -1.374   1.799 -40.371  1.00  0.00     0.029 H 
HETATM   37 3H01 DI1 A1000      -2.319   2.863 -41.323  1.00  0.00     0.029 H 
HETATM   38  C16 DI1 A1000      -4.865   8.707 -36.527  1.00 34.07     0.418 C 
HETATM   39  F19 DI1 A1000      -5.714   9.620 -36.399  1.00 32.66    -0.166 F 
HETATM   40  F17 DI1 A1000      -5.437   7.797 -37.178  1.00 35.34    -0.166 F 
HETATM   41  F18 DI1 A1000      -3.961   9.197 -37.291  1.00 34.55    -0.166 F 
HETATM   42  C22 DI1 A1000      -7.037  10.149 -30.849  1.00 30.76     0.037 A 
HETATM   43  C28 DI1 A1000      -8.372   9.869 -31.070  1.00 29.62    -0.024 A 
HETATM   44  C27 DI1 A1000      -9.337  10.419 -30.255  1.00 29.96     0.085 A 
HETATM   45  H28 DI1 A1000      -8.667   9.204 -31.900  1.00  0.00     0.091 H 
HETATM   46  C25 DI1 A1000      -8.990  11.243 -29.182  1.00 30.34    -0.020 A 
HETATM   47  C24 DI1 A1000      -7.644  11.466 -28.947  1.00 31.32    -0.072 A 
HETATM   48  C23 DI1 A1000      -6.673  10.940 -29.774  1.00 30.63    -0.056 A 
HETATM   49  H24 DI1 A1000      -7.342  12.076 -28.081  1.00  0.00     0.084 H 
HETATM   50  H23 DI1 A1000      -5.608  11.151 -29.578  1.00  0.00     0.086 H 
HETATM   51  O29 DI1 A1000     -10.545  10.236 -30.839  1.00 30.38    -0.310 OA
HETATM   52  C30 DI1 A1000     -11.080  10.694 -32.005  1.00 34.16     0.076 A 
HETATM   53  C39 DI1 A1000     -11.561   9.807 -32.955  1.00 33.39    -0.041 A 
HETATM   54  C34 DI1 A1000     -12.372  10.286 -33.966  1.00 31.98    -0.016 A 
HETATM   55  H39 DI1 A1000     -11.300   8.736 -32.906  1.00  0.00     0.088 H 
HETATM   56  C33 DI1 A1000     -12.685  11.641 -34.014  1.00 33.51     0.042 A 
HETATM   57  C35 DI1 A1000     -13.032   9.624 -35.133  1.00 32.48     0.051 A 
HETATM   58  C32 DI1 A1000     -12.200  12.518 -33.067  1.00 36.25    -0.054 A 
HETATM   59  N37 DI1 A1000     -13.483  11.889 -35.113  1.00 35.18    -0.326 N 
HETATM   60  C31 DI1 A1000     -11.378  12.039 -32.068  1.00 33.93    -0.048 A 
HETATM   61  H32 DI1 A1000     -12.465  13.588 -33.109  1.00  0.00     0.087 H 
HETATM   62  H31 DI1 A1000     -10.958  12.732 -31.320  1.00  0.00     0.087 H 
HETATM   63  C36 DI1 A1000     -13.747  10.755 -35.813  1.00 33.97     0.230 A 
HETATM   64  H37 DI1 A1000     -13.832  12.813 -35.369  1.00  0.00     0.169 HD
HETATM   65  O38 DI1 A1000     -14.448  10.692 -36.804  1.00 41.19    -0.272 OA
HETATM   66 1H35 DI1 A1000     -13.682   8.758 -34.867  1.00  0.00     0.062 H 
HETATM   67  C3  DI1 A1000     -12.085   8.839 -36.034  1.00  0.00    -0.049 C 
HETATM   68  H4  DI1 A1000     -11.920   7.786 -35.859  1.00  0.00     0.034 H 
HETATM   69  H1  DI1 A1000     -11.579   9.336 -36.849  1.00  0.00     0.034 H 
HETATM   70  C26 DI1 A1000     -10.034  11.877 -28.307  1.00 31.24    -0.026 C 
HETATM   71 1H26 DI1 A1000     -11.045  11.420 -28.209  1.00  0.00     0.047 H 
HETATM   72  C1  DI1 A1000     -10.204  13.327 -28.744  1.00  0.00    -0.057 C 
HETATM   73  H1  DI1 A1000      -9.339  13.962 -28.861  1.00  0.00     0.034 H 
HETATM   74  H2  DI1 A1000     -11.192  13.720 -28.938  1.00  0.00     0.034 H 
HETATM   75  C2  DI1 A1000      -9.448  12.042 -26.909  1.00  0.00    -0.057 C 
HETATM   76  H1  DI1 A1000      -9.982  12.613 -26.164  1.00  0.00     0.034 H 
HETATM   77  H3  DI1 A1000      -8.499  11.588 -26.664  1.00  0.00     0.034 H 
ENDMDL
REMARK VINA RESULT:      -9.2      6.377     10.636
REMARK  13 active torsions:
REMARK  status: ('A' for Active; 'I' for Inactive)
REMARK    1  A    between atoms: C09_48  and  C10_1 
REMARK    2  A    between atoms: C13_6  and  C20_10 
REMARK    3  A    between atoms: C15_9  and  C16_44 
REMARK       I    between atoms: C20_10  and  N21_11 
REMARK    4  A    between atoms: C22_14  and  N21_11 
REMARK    5  A    between atoms: C27_16  and  O29_23 
REMARK    6  A    between atoms: C25_18  and  C26_40 
REMARK    7  A    between atoms: C30_24  and  O29_23 
REMARK    8  A    between atoms: C3_36  and  C35_34 
REMARK    9  A    between atoms: C1_42  and  C26_40 
REMARK   10  A    between atoms: C2_41  and  C26_40 
REMARK   11  A    between atoms: C09_48  and  N06_51 
REMARK   12  A    between atoms: C02_65  and  N03_56 
REMARK   13  A    between atoms: C01_68  and  C02_65 
REMARK viewdock state: V
HETATM    1  C20 DI1 A1000      -6.712   7.582 -32.158  1.00 35.22     0.256 C 
HETATM    2  N21 DI1 A1000      -5.993   6.815 -31.311  1.00 33.72    -0.323 N 
HETATM    3  H21 DI1 A1000      -5.296   6.200 -31.730  1.00  0.00     0.169 HD
HETATM    4  O40 DI1 A1000      -7.717   8.190 -31.825  1.00 34.16    -0.267 OA
HETATM    5  C13 DI1 A1000      -6.292   7.555 -33.584  1.00 33.40     0.033 A 
HETATM    6  C12 DI1 A1000      -7.071   7.101 -34.638  1.00 34.49    -0.067 A 
HETATM    7  C11 DI1 A1000      -6.553   7.053 -35.916  1.00 31.89    -0.073 A 
HETATM    8  H12 DI1 A1000      -8.109   6.779 -34.454  1.00  0.00     0.085 H 
HETATM    9  C10 DI1 A1000      -5.244   7.436 -36.169  1.00 31.19    -0.015 A 
HETATM   10  H11 DI1 A1000      -7.189   6.705 -36.747  1.00  0.00     0.084 H 
HETATM   11  C15 DI1 A1000      -4.448   7.862 -35.107  1.00 31.14     0.056 A 
HETATM   12  C14 DI1 A1000      -4.977   7.922 -33.826  1.00 32.40    -0.052 A 
HETATM   13  H14 DI1 A1000      -4.345   8.265 -32.989  1.00  0.00     0.086 H 
HETATM   14  C09 DI1 A1000      -4.714   7.444 -37.581  1.00 31.99     0.138 C 
HETATM   15 1H09 DI1 A1000      -3.716   7.940 -37.636  1.00  0.00     0.087 H 
HETATM   16 2H09 DI1 A1000      -5.295   8.144 -38.226  1.00  0.00     0.087 H 
HETATM   17  N06 DI1 A1000      -4.672   6.103 -38.161  1.00 31.70     0.096 N 
HETATM   18  C05 DI1 A1000      -3.299   5.691 -38.477  1.00 31.38     0.138 C 
HETATM   19 1H05 DI1 A1000      -2.796   6.416 -39.160  1.00  0.00     0.082 H 
HETATM   20 2H05 DI1 A1000      -2.621   5.793 -37.598  1.00  0.00     0.082 H 
HETATM   21  C04 DI1 A1000      -3.285   4.281 -39.041  1.00 30.37     0.138 C 
HETATM   22 1H04 DI1 A1000      -2.247   3.936 -39.263  1.00  0.00     0.082 H 
HETATM   23 2H04 DI1 A1000      -3.551   3.524 -38.268  1.00  0.00     0.082 H 
HETATM   24  N03 DI1 A1000      -4.154   4.185 -40.219  1.00 33.96     0.091 N 
HETATM   25  C08 DI1 A1000      -5.514   4.612 -39.873  1.00 32.34     0.138 C 
HETATM   26 1H08 DI1 A1000      -6.216   4.493 -40.730  1.00  0.00     0.082 H 
HETATM   27 2H08 DI1 A1000      -6.000   3.905 -39.159  1.00  0.00     0.082 H 
HETATM   28  C07 DI1 A1000      -5.510   6.013 -39.351  1.00 31.73     0.138 C 
HETATM   29 1H07 DI1 A1000      -6.541   6.391 -39.163  1.00  0.00     0.082 H 
HETATM   30 2H07 DI1 A1000      -5.204   6.748 -40.133  1.00  0.00     0.082 H 
HETATM   31  C02 DI1 A1000      -4.211   2.807 -40.702  1.00 36.77     0.110 C 
HETATM   32 1H02 DI1 A1000      -5.156   2.324 -40.362  1.00  0.00     0.079 H 
HETATM   33 2H02 DI1 A1000      -4.369   2.799 -41.806  1.00  0.00     0.079 H 
HETATM   34  C01 DI1 A1000      -3.056   1.958 -40.352  1.00 38.92    -0.051 C 
HETATM   35 1H01 DI1 A1000      -3.263   1.135 -39.628  1.00  0.00     0.029 H 
HETATM   36 2H01 DI1 A1000      -2.218   2.592 -39.978  1.00  0.00     0.029 H 
HETATM   37 3H01 DI1 A1000      -2.593   1.544 -41.278  1.00  0.00     0.029 H 
HETATM   38  C16 DI1 A1000      -3.037   8.300 -35.302  1.00 34.07     0.418 C 
HETATM   39  F19 DI1 A1000      -2.941   9.321 -36.023  1.00 32.66    -0.166 F 
HETATM   40  F17 DI1 A1000      -2.335   7.421 -35.859  1.00 35.34    -0.166 F 
HETATM   41  F18 DI1 A1000      -2.447   8.609 -34.208  1.00 34.55    -0.166 F 
HETATM   42  C22 DI1 A1000      -6.107   6.777 -29.903  1.00 30.76     0.037 A 
HETATM   43  C28 DI1 A1000      -6.657   5.651 -29.319  1.00 29.62    -0.024 A 
HETATM   44  C27 DI1 A1000      -6.836   5.598 -27.954  1.00 29.96     0.085 A 
HETATM   45  H28 DI1 A1000      -6.954   4.793 -29.946  1.00  0.00     0.091 H 
HETATM   46  C25 DI1 A1000      -6.446   6.660 -27.134  1.00 30.34    -0.020 A 
HETATM   47  C24 DI1 A1000      -5.847   7.754 -27.735  1.00 31.32    -0.072 A 
HETATM   48  C23 DI1 A1000      -5.688   7.825 -29.103  1.00 30.63    -0.056 A 
HETATM   49  H24 DI1 A1000      -5.490   8.586 -27.106  1.00  0.00     0.084 H 
HETATM   50  H23 DI1 A1000      -5.228   8.719 -29.559  1.00  0.00     0.086 H 
HETATM   51  O29 DI1 A1000      -7.638   4.545 -27.668  1.00 30.38    -0.310 OA
HETATM   52  C30 DI1 A1000      -8.993   4.414 -27.603  1.00 34.16     0.076 A 
HETATM   53  C39 DI1 A1000      -9.603   3.225 -27.970  1.00 33.39    -0.041 A 
HETATM   54  C34 DI1 A1000     -10.917   3.008 -27.601  1.00 31.98    -0.016 A 
HETATM   55  H39 DI1 A1000      -9.049   2.465 -28.548  1.00  0.00     0.088 H 
HETATM   56  C33 DI1 A1000     -11.599   3.981 -26.878  1.00 33.51     0.042 A 
HETATM   57  C35 DI1 A1000     -11.860   1.873 -27.841  1.00 32.48     0.051 A 
HETATM   58  C32 DI1 A1000     -10.986   5.162 -26.519  1.00 36.25    -0.054 A 
HETATM   59  N37 DI1 A1000     -12.893   3.556 -26.644  1.00 35.18    -0.326 N 
HETATM   60  C31 DI1 A1000      -9.679   5.383 -26.902  1.00 33.93    -0.048 A 
HETATM   61  H32 DI1 A1000     -11.534   5.921 -25.935  1.00  0.00     0.087 H 
HETATM   62  H31 DI1 A1000      -9.183   6.335 -26.648  1.00  0.00     0.087 H 
HETATM   63  C36 DI1 A1000     -13.122   2.322 -27.163  1.00 33.97     0.230 A 
HETATM   64  H37 DI1 A1000     -13.592   4.105 -26.144  1.00  0.00     0.169 HD
HETATM   65  O38 DI1 A1000     -14.166   1.707 -27.071  1.00 41.19    -0.272 OA
HETATM   66 1H35 DI1 A1000     -11.482   0.879 -27.506  1.00  0.00     0.062 H 
HETATM   67  C3  DI1 A1000     -12.031   1.490 -29.308  1.00  0.00    -0.049 C 
HETATM   68  H4  DI1 A1000     -12.962   1.063 -29.649  1.00  0.00     0.034 H 
HETATM   69  H1  DI1 A1000     -11.220   1.646 -30.004  1.00  0.00     0.034 H 
HETATM   70  C26 DI1 A1000      -6.667   6.629 -25.649  1.00 31.24    -0.026 C 
HETATM   71 1H26 DI1 A1000      -7.152   5.750 -25.166  1.00  0.00     0.047 H 
HETATM   72  C1  DI1 A1000      -7.446   7.880 -25.258  1.00  0.00    -0.057 C 
HETATM   73  H1  DI1 A1000      -7.605   8.114 -24.216  1.00  0.00     0.034 H 
HETATM   74  H2  DI1 A1000      -7.839   8.532 -26.024  1.00  0.00     0.034 H 
HETATM   75  C2  DI1 A1000      -5.328   6.872 -24.961  1.00  0.00    -0.057 C 
HETATM   76  H1  DI1 A1000      -4.519   6.170 -25.094  1.00  0.00     0.034 H 
HETATM   77  H3  DI1 A1000      -5.190   7.746 -24.342  1.00  0.00     0.034 H 
ENDMDL
