REMARK  10 active torsions:
REMARK  status: ('A' for Active; 'I' for Inactive)
REMARK    1  A    between atoms: C01_1  and  C02_5 
REMARK    2  A    between atoms: C02_5  and  N03_8 
REMARK    3  A    between atoms: C09_22  and  N06_15 
REMARK    4  A    between atoms: C09_22  and  C10_25 
REMARK    5  A    between atoms: C13_30  and  C20_38 
REMARK    6  A    between atoms: C15_33  and  C16_34 
REMARK       I    between atoms: C20_38  and  N21_39 
REMARK    7  A    between atoms: C22_41  and  N21_39 
REMARK    8  A    between atoms: C25_46  and  C26_47 
REMARK    9  A    between atoms: C27_51  and  O29_54 
REMARK   10  A    between atoms: C30_55  and  O29_54 
ROOT
HETATM    1  C10 DI1 A1000       9.434 -24.744 -30.231  1.00 31.19    -0.015 A 
HETATM    2  C11 DI1 A1000      10.671 -24.187 -30.519  1.00 31.89    -0.073 A 
ATOM      3  H11 DI1 A1000      11.287 -24.617 -31.327  1.00  0.00     0.084 H 
HETATM    4  C12 DI1 A1000      11.142 -23.102 -29.809  1.00 34.49    -0.067 A 
ATOM      5  H12 DI1 A1000      12.121 -22.663 -30.063  1.00  0.00     0.085 H 
HETATM    6  C13 DI1 A1000      10.390 -22.561 -28.777  1.00 33.40     0.033 A 
HETATM    7  C14 DI1 A1000       9.146 -23.101 -28.494  1.00 32.40    -0.052 A 
ATOM      8  H14 DI1 A1000       8.533 -22.665 -27.687  1.00  0.00     0.086 H 
HETATM    9  C15 DI1 A1000       8.662 -24.184 -29.214  1.00 31.14     0.056 A 
ENDROOT
BRANCH   6  10
HETATM   10  C20 DI1 A1000      10.757 -21.352 -27.992  1.00 35.22     0.256 C 
HETATM   11  N21 DI1 A1000      11.761 -20.600 -28.492  1.00 33.72    -0.323 N 
ATOM     12  H21 DI1 A1000      12.256 -20.977 -29.300  1.00  0.00     0.169 HD
HETATM   13  O40 DI1 A1000      10.233 -21.139 -26.911  1.00 34.16    -0.267 OA
BRANCH  11  14
HETATM   14  C22 DI1 A1000      12.197 -19.345 -28.011  1.00 30.76     0.037 A 
HETATM   15  C28 DI1 A1000      12.580 -19.247 -26.686  1.00 29.62    -0.024 A 
HETATM   16  C27 DI1 A1000      12.958 -18.029 -26.166  1.00 29.96     0.084 A 
ATOM     17  H28 DI1 A1000      12.583 -20.145 -26.045  1.00  0.00     0.091 H 
HETATM   18  C25 DI1 A1000      12.988 -16.882 -26.961  1.00 30.34    -0.028 A 
HETATM   19  C24 DI1 A1000      12.652 -17.015 -28.298  1.00 31.32    -0.072 A 
HETATM   20  C23 DI1 A1000      12.247 -18.225 -28.822  1.00 30.63    -0.057 A 
ATOM     21  H24 DI1 A1000      12.710 -16.134 -28.959  1.00  0.00     0.084 H 
ATOM     22  H23 DI1 A1000      11.964 -18.300 -29.885  1.00  0.00     0.086 H 
BRANCH  16  23
HETATM   23  O29 DI1 A1000      13.002 -18.136 -24.816  1.00 30.38    -0.310 OA
BRANCH  23  24
HETATM   24  C30 DI1 A1000      12.553 -17.328 -23.815  1.00 34.16     0.076 A 
HETATM   25  C31 DI1 A1000      13.296 -17.303 -22.654  1.00 33.93    -0.048 A 
HETATM   26  C32 DI1 A1000      12.755 -16.775 -21.500  1.00 36.25    -0.054 A 
ATOM     27  H31 DI1 A1000      14.323 -17.705 -22.648  1.00  0.00     0.087 H 
HETATM   28  C33 DI1 A1000      11.483 -16.246 -21.537  1.00 33.51     0.041 A 
ATOM     29  H32 DI1 A1000      13.333 -16.776 -20.560  1.00  0.00     0.087 H 
HETATM   30  N37 DI1 A1000      10.755 -15.637 -20.533  1.00 35.18    -0.326 N 
HETATM   31  C34 DI1 A1000      10.737 -16.251 -22.710  1.00 31.98    -0.020 A 
HETATM   32  C36 DI1 A1000       9.530 -15.240 -20.965  1.00 33.97     0.226 A 
ATOM     33  H37 DI1 A1000      11.097 -15.502 -19.581  1.00  0.00     0.169 HD
HETATM   34  C35 DI1 A1000       9.426 -15.593 -22.421  1.00 32.48     0.035 A 
HETATM   35  O38 DI1 A1000       8.683 -14.708 -20.275  1.00 41.19    -0.273 OA
ATOM     36 2H35 DI1 A1000       9.181 -14.735 -23.089  1.00  0.00     0.054 H 
ATOM     37 1H35 DI1 A1000       8.532 -16.204 -22.687  1.00  0.00     0.054 H 
HETATM   38  C39 DI1 A1000      11.275 -16.794 -23.862  1.00 33.39    -0.042 A 
ATOM     39  H39 DI1 A1000      10.697 -16.802 -24.802  1.00  0.00     0.088 H 
ENDBRANCH  23  24
ENDBRANCH  16  23
BRANCH  18  40
HETATM   40  C26 DI1 A1000      13.364 -15.542 -26.398  1.00 31.24    -0.049 C 
ATOM     41 3H26 DI1 A1000      14.199 -15.128 -27.010  1.00  0.00     0.033 H 
ATOM     42 2H26 DI1 A1000      12.541 -14.825 -26.624  1.00  0.00     0.033 H 
ATOM     43 1H26 DI1 A1000      13.635 -15.435 -25.322  1.00  0.00     0.033 H 
ENDBRANCH  18  40
ENDBRANCH  11  14
ENDBRANCH   6  10
BRANCH   9  44
HETATM   44  C16 DI1 A1000       7.330 -24.735 -28.839  1.00 34.07     0.418 C 
HETATM   45  F17 DI1 A1000       6.547 -24.805 -29.818  1.00 35.34    -0.166 F 
HETATM   46  F18 DI1 A1000       6.734 -24.050 -27.935  1.00 34.55    -0.166 F 
HETATM   47  F19 DI1 A1000       7.399 -25.897 -28.373  1.00 32.66    -0.166 F 
ENDBRANCH   9  44
BRANCH   1  48
HETATM   48  C09 DI1 A1000       8.964 -25.973 -30.968  1.00 31.99     0.138 C 
ATOM     49 2H09 DI1 A1000       8.088 -26.439 -30.459  1.00  0.00     0.087 H 
ATOM     50 1H09 DI1 A1000       8.482 -25.703 -31.937  1.00  0.00     0.087 H 
BRANCH  48  51
HETATM   51  N06 DI1 A1000      10.040 -26.943 -31.164  1.00 31.70     0.096 N 
HETATM   52  C05 DI1 A1000       9.664 -27.984 -32.127  1.00 31.38     0.138 C 
HETATM   53  C04 DI1 A1000      10.814 -28.953 -32.337  1.00 30.37     0.138 C 
ATOM     54 2H05 DI1 A1000       9.307 -27.549 -33.090  1.00  0.00     0.082 H 
ATOM     55 1H05 DI1 A1000       8.728 -28.510 -31.825  1.00  0.00     0.082 H 
HETATM   56  N03 DI1 A1000      11.238 -29.538 -31.061  1.00 33.96     0.091 N 
ATOM     57 2H04 DI1 A1000      11.665 -28.474 -32.875  1.00  0.00     0.082 H 
ATOM     58 1H04 DI1 A1000      10.561 -29.738 -33.088  1.00  0.00     0.082 H 
HETATM   59  C08 DI1 A1000      11.597 -28.474 -30.117  1.00 32.34     0.138 C 
HETATM   60  C07 DI1 A1000      10.441 -27.551 -29.900  1.00 31.73     0.138 C 
ATOM     61 2H08 DI1 A1000      12.511 -27.924 -30.442  1.00  0.00     0.082 H 
ATOM     62 1H08 DI1 A1000      11.983 -28.886 -29.156  1.00  0.00     0.082 H 
ATOM     63 2H07 DI1 A1000       9.589 -28.062 -29.394  1.00  0.00     0.082 H 
ATOM     64 1H07 DI1 A1000      10.660 -26.785 -29.120  1.00  0.00     0.082 H 
BRANCH  56  65
HETATM   65  C02 DI1 A1000      12.404 -30.397 -31.253  1.00 36.77     0.110 C 
ATOM     66 2H02 DI1 A1000      12.813 -30.710 -30.264  1.00  0.00     0.079 H 
ATOM     67 1H02 DI1 A1000      13.260 -29.796 -31.640  1.00  0.00     0.079 H 
BRANCH  65  68
HETATM   68  C01 DI1 A1000      12.192 -31.581 -32.108  1.00 38.92    -0.051 C 
ATOM     69 3H01 DI1 A1000      11.336 -32.182 -31.721  1.00  0.00     0.029 H 
ATOM     70 2H01 DI1 A1000      11.783 -31.268 -33.097  1.00  0.00     0.029 H 
ATOM     71 1H01 DI1 A1000      13.082 -32.237 -32.255  1.00  0.00     0.029 H 
ENDBRANCH  65  68
ENDBRANCH  56  65
ENDBRANCH  48  51
ENDBRANCH   1  48
TORSDOF 10
