REMARK  10 active torsions:
REMARK  status: ('A' for Active; 'I' for Inactive)
REMARK    1  A    between atoms: C09_48  and  C10_1 
REMARK    2  A    between atoms: C13_6  and  C20_10 
REMARK    3  A    between atoms: C15_9  and  C16_44 
REMARK       I    between atoms: C20_10  and  N21_11 
REMARK    4  A    between atoms: C22_14  and  N21_11 
REMARK    5  A    between atoms: C1_23  and  C27_16 
REMARK    6  A    between atoms: C25_18  and  C26_40 
REMARK    7  A    between atoms: C1_23  and  C30_24 
REMARK    8  A    between atoms: C09_48  and  N06_51 
REMARK    9  A    between atoms: C02_65  and  N03_56 
REMARK   10  A    between atoms: C01_68  and  C02_65 
ROOT
HETATM    1  C10 DI1 A1000      33.667  -2.330 -42.324  1.00 31.19    -0.015 A 
HETATM    2  C11 DI1 A1000      34.347  -1.472 -41.473  1.00 31.89    -0.073 A 
HETATM    3  H11 DI1 A1000      35.451  -1.482 -41.457  1.00  0.00     0.084 H 
HETATM    4  C12 DI1 A1000      33.663  -0.607 -40.645  1.00 34.49    -0.067 A 
HETATM    5  H12 DI1 A1000      34.222   0.078 -39.985  1.00  0.00     0.085 H 
HETATM    6  C13 DI1 A1000      32.277  -0.594 -40.636  1.00 33.40     0.033 A 
HETATM    7  C14 DI1 A1000      31.590  -1.436 -41.497  1.00 32.40    -0.052 A 
HETATM    8  H14 DI1 A1000      30.487  -1.419 -41.511  1.00  0.00     0.086 H 
HETATM    9  C15 DI1 A1000      32.274  -2.299 -42.342  1.00 31.14     0.056 A 
ENDROOT
BRANCH   6  10
HETATM   10  C20 DI1 A1000      31.433   0.341 -39.846  1.00 35.22     0.256 C 
HETATM   11  O40 DI1 A1000      30.356  -0.027 -39.405  1.00 34.16    -0.267 OA
HETATM   12  N21 DI1 A1000      31.981   1.542 -39.562  1.00 33.72    -0.323 N 
HETATM   13  H21 DI1 A1000      32.960   1.669 -39.815  1.00  0.00     0.169 HD
BRANCH  12  14
HETATM   14  C22 DI1 A1000      31.337   2.641 -38.951  1.00 30.76     0.035 A 
HETATM   15  C28 DI1 A1000      29.975   2.562 -38.727  1.00 29.62    -0.044 A 
HETATM   16  C27 DI1 A1000      29.302   3.634 -38.184  1.00 29.96     0.026 A 
HETATM   17  H28 DI1 A1000      29.426   1.640 -38.982  1.00  0.00     0.088 H 
HETATM   18  C25 DI1 A1000      29.976   4.804 -37.827  1.00 30.34    -0.049 A 
HETATM   19  C24 DI1 A1000      31.348   4.840 -38.010  1.00 31.32    -0.074 A 
HETATM   20  C23 DI1 A1000      32.026   3.781 -38.577  1.00 30.63    -0.057 A 
HETATM   21  H24 DI1 A1000      31.911   5.734 -37.696  1.00  0.00     0.084 H 
HETATM   22  H23 DI1 A1000      33.117   3.843 -38.732  1.00  0.00     0.086 H 
BRANCH  16  23
HETATM   23  C1  DI1 A1000      27.972   3.425 -38.333  1.00 30.38     0.299 C 
HETATM   24  F1  DI1 A1000      27.907   2.261 -38.712  1.00  0.00    -0.195 F 
HETATM   25  F2  DI1 A1000      27.654   4.094 -39.309  1.00  0.00    -0.195 F 
BRANCH  23  26
HETATM   26  C30 DI1 A1000      26.922   3.536 -37.472  1.00 34.16     0.018 A 
HETATM   27  C31 DI1 A1000      27.200   3.401 -36.129  1.00 33.93    -0.069 A 
HETATM   28  C32 DI1 A1000      26.176   3.184 -35.231  1.00 36.25    -0.056 A 
HETATM   29  H31 DI1 A1000      28.242   3.467 -35.772  1.00  0.00     0.084 H 
HETATM   30  C33 DI1 A1000      24.878   3.140 -35.691  1.00 33.51     0.041 A 
HETATM   31  H32 DI1 A1000      26.393   3.048 -34.157  1.00  0.00     0.087 H 
HETATM   32  N37 DI1 A1000      23.701   2.975 -34.988  1.00 35.18    -0.326 N 
HETATM   33  C34 DI1 A1000      24.590   3.295 -37.043  1.00 31.98    -0.022 A 
HETATM   34  C36 DI1 A1000      22.615   2.991 -35.805  1.00 33.97     0.226 A 
HETATM   35  H37 DI1 A1000      23.652   2.855 -33.976  1.00  0.00     0.169 HD
HETATM   36  C35 DI1 A1000      23.106   3.218 -37.207  1.00 32.48     0.035 A 
HETATM   37  O38 DI1 A1000      21.466   2.836 -35.444  1.00 41.19    -0.273 OA
HETATM   38 1H35 DI1 A1000      22.760   2.459 -37.946  1.00  0.00     0.054 H 
HETATM   39 2H35 DI1 A1000      22.649   4.095 -37.721  1.00  0.00     0.054 H 
HETATM   40  C39 DI1 A1000      25.619   3.498 -37.943  1.00 33.39    -0.062 A 
HETATM   41  H39 DI1 A1000      25.407   3.627 -39.019  1.00  0.00     0.085 H 
ENDBRANCH  23  26
ENDBRANCH  16  23
BRANCH  18  42
HETATM   42  C26 DI1 A1000      29.249   5.993 -37.266  1.00 31.24    -0.051 C 
HETATM   43 1H26 DI1 A1000      28.136   6.038 -37.288  1.00  0.00     0.033 H 
HETATM   44 2H26 DI1 A1000      29.646   6.909 -37.762  1.00  0.00     0.033 H 
HETATM   45 3H26 DI1 A1000      29.583   6.142 -36.213  1.00  0.00     0.033 H 
ENDBRANCH  18  42
ENDBRANCH  12  14
ENDBRANCH   6  10
BRANCH   9  46
HETATM   46  C16 DI1 A1000      31.473  -3.198 -43.220  1.00 34.07     0.418 C 
HETATM   47  F18 DI1 A1000      31.789  -3.109 -44.458  1.00 34.55    -0.166 F 
HETATM   48  F19 DI1 A1000      30.245  -2.950 -43.178  1.00 32.66    -0.166 F 
HETATM   49  F17 DI1 A1000      31.589  -4.407 -42.900  1.00 35.34    -0.166 F 
ENDBRANCH   9  46
BRANCH   1  50
HETATM   50  C09 DI1 A1000      34.426  -3.320 -43.172  1.00 31.99     0.138 C 
HETATM   51 1H09 DI1 A1000      34.592  -2.926 -44.203  1.00  0.00     0.087 H 
HETATM   52 2H09 DI1 A1000      33.797  -4.205 -43.420  1.00  0.00     0.087 H 
BRANCH  50  53
HETATM   53  N06 DI1 A1000      35.686  -3.724 -42.551  1.00 31.70     0.096 N 
HETATM   54  C05 DI1 A1000      36.633  -4.254 -43.539  1.00 31.38     0.138 C 
HETATM   55 1H05 DI1 A1000      36.201  -5.107 -44.111  1.00  0.00     0.082 H 
HETATM   56 2H05 DI1 A1000      36.788  -3.546 -44.387  1.00  0.00     0.082 H 
HETATM   57  C04 DI1 A1000      37.944  -4.629 -42.869  1.00 30.37     0.138 C 
HETATM   58 1H04 DI1 A1000      38.690  -5.009 -43.607  1.00  0.00     0.082 H 
HETATM   59 2H04 DI1 A1000      38.499  -3.730 -42.516  1.00  0.00     0.082 H 
HETATM   60  N03 DI1 A1000      37.715  -5.589 -41.784  1.00 33.96     0.091 N 
HETATM   61  C08 DI1 A1000      36.758  -5.036 -40.820  1.00 32.34     0.138 C 
HETATM   62 1H08 DI1 A1000      36.608  -5.714 -39.949  1.00  0.00     0.082 H 
HETATM   63 2H08 DI1 A1000      37.179  -4.157 -40.277  1.00  0.00     0.082 H 
HETATM   64  C07 DI1 A1000      35.464  -4.704 -41.493  1.00 31.73     0.138 C 
HETATM   65 1H07 DI1 A1000      34.691  -4.363 -40.766  1.00  0.00     0.082 H 
HETATM   66 2H07 DI1 A1000      34.945  -5.616 -41.871  1.00  0.00     0.082 H 
BRANCH  60  67
HETATM   67  C02 DI1 A1000      38.963  -5.876 -41.082  1.00 36.77     0.110 C 
HETATM   68 1H02 DI1 A1000      39.017  -5.280 -40.141  1.00  0.00     0.079 H 
HETATM   69 2H02 DI1 A1000      38.934  -6.909 -40.662  1.00  0.00     0.079 H 
BRANCH  67  70
HETATM   70  C01 DI1 A1000      40.198  -5.687 -41.869  1.00 38.92    -0.051 C 
HETATM   71 1H01 DI1 A1000      40.692  -6.621 -42.225  1.00  0.00     0.029 H 
HETATM   72 2H01 DI1 A1000      40.924  -5.068 -41.293  1.00  0.00     0.029 H 
HETATM   73 3H01 DI1 A1000      39.999  -5.009 -42.732  1.00  0.00     0.029 H 
ENDBRANCH  67  70
ENDBRANCH  60  67
ENDBRANCH  50  53
ENDBRANCH   1  50
TORSDOF 10
