REMARK VINA RESULT:      -9.1      0.000      0.000
REMARK  9 active torsions:
REMARK  status: ('A' for Active; 'I' for Inactive)
REMARK    1  A    between atoms: C2_3  and  C3_4 
REMARK       I    between atoms: C3_4  and  N2_42 
REMARK    2  A    between atoms: C20_30  and  N6_5 
REMARK    3  A    between atoms: C10_11  and  C9_10 
REMARK    4  A    between atoms: C11_15  and  N_36 
REMARK    5  A    between atoms: C13_18  and  N5_54 
REMARK    6  A    between atoms: C14_19  and  C15_20 
REMARK    7  A    between atoms: C20_30  and  C21_33 
REMARK    8  A    between atoms: C21_33  and  O1_61 
REMARK    9  A    between atoms: C4_44  and  N2_42 
REMARK viewdock state: V
HETATM    1  C11 1N1 A1009      -7.509   9.640 -34.237  1.00 36.10     0.111 A 
HETATM    2  C12 1N1 A1009      -8.835   9.540 -34.685  1.00 35.38     0.002 A 
ATOM      3  H12 1N1 A1009      -9.126   9.808 -35.714  1.00  0.00     0.095 H 
HETATM    4  C13 1N1 A1009      -9.771   9.078 -33.744  1.00 36.95     0.108 A 
HETATM    5  C14 1N1 A1009      -8.128   8.856 -32.160  1.00 35.56     0.080 A 
HETATM    6  N3  1N1 A1009      -9.415   8.726 -32.493  1.00 33.46    -0.332 N 
ATOM      7  H3  1N1 A1009     -10.102   8.374 -31.826  1.00  0.00     0.168 HD
HETATM    8  N4  1N1 A1009      -7.177   9.291 -32.980  1.00 36.45    -0.332 N 
ATOM      9  H4  1N1 A1009      -6.210   9.359 -32.662  1.00  0.00     0.168 HD
HETATM   10  N   1N1 A1009      -6.489  10.076 -35.074  1.00 32.81    -0.323 N 
HETATM   11  C   1N1 A1009      -5.627   9.338 -35.820  1.00 30.59     0.150 A 
HETATM   12  N1  1N1 A1009      -4.694   9.881 -36.551  1.00 30.84    -0.345 N 
HETATM   13  S   1N1 A1009      -5.677   7.608 -35.867  1.00 33.35    -0.047 SA
HETATM   14  C1  1N1 A1009      -3.958   8.917 -37.197  1.00 30.16     0.001 A 
ATOM     15  H1  1N1 A1009      -4.533  10.884 -36.633  1.00  0.00     0.167 HD
HETATM   16  C2  1N1 A1009      -4.342   7.648 -36.940  1.00 29.57     0.091 A 
ATOM     17  H1  1N1 A1009      -3.120   9.159 -37.872  1.00  0.00     0.113 H 
ATOM     18  HN  1N1 A1009      -6.371  11.087 -35.135  1.00  0.00     0.169 HD
HETATM   19  C3  1N1 A1009      -3.825   6.356 -37.432  1.00 26.67     0.264 C 
HETATM   20  O   1N1 A1009      -3.342   5.533 -36.661  1.00 26.93    -0.267 OA
HETATM   21  N2  1N1 A1009      -3.910   6.129 -38.764  1.00 30.87    -0.320 N 
ATOM     22  H2  1N1 A1009      -4.276   6.887 -39.341  1.00  0.00     0.169 HD
HETATM   23  C4  1N1 A1009      -3.533   4.924 -39.437  1.00 31.44     0.062 A 
HETATM   24  C9  1N1 A1009      -4.510   4.100 -40.002  1.00 28.89    -0.034 A 
HETATM   25  C8  1N1 A1009      -4.108   2.919 -40.626  1.00 31.86    -0.075 A 
HETATM   26  C7  1N1 A1009      -2.764   2.590 -40.721  1.00 36.32    -0.081 A 
ATOM     27  H8  1N1 A1009      -4.868   2.240 -41.050  1.00  0.00     0.084 H 
HETATM   28  C6  1N1 A1009      -1.800   3.422 -40.185  1.00 35.67    -0.060 A 
ATOM     29  H7  1N1 A1009      -2.463   1.658 -41.228  1.00  0.00     0.083 H 
HETATM   30  C5  1N1 A1009      -2.189   4.588 -39.554  1.00 33.96     0.061 A 
ATOM     31  H6  1N1 A1009      -0.731   3.160 -40.261  1.00  0.00     0.086 H 
HETATM   32 CL   1N1 A1009      -0.974   5.616 -38.864  1.00 43.69    -0.082 Cl
HETATM   33  C10 1N1 A1009      -5.975   4.448 -39.922  1.00 19.47    -0.049 C 
ATOM     34 3H10 1N1 A1009      -6.094   5.265 -39.171  1.00  0.00     0.033 H 
ATOM     35 2H10 1N1 A1009      -6.258   4.963 -40.870  1.00  0.00     0.033 H 
ATOM     36 1H10 1N1 A1009      -6.747   3.672 -39.709  1.00  0.00     0.033 H 
HETATM   37  C15 1N1 A1009      -7.721   8.485 -30.773  1.00 36.31    -0.023 C 
ATOM     38 3H15 1N1 A1009      -8.585   8.007 -30.255  1.00  0.00     0.037 H 
ATOM     39 2H15 1N1 A1009      -7.004   7.632 -30.820  1.00  0.00     0.037 H 
ATOM     40 1H15 1N1 A1009      -7.298   9.282 -30.119  1.00  0.00     0.037 H 
HETATM   41  N5  1N1 A1009     -11.130   8.943 -34.070  1.00 41.20    -0.364 N 
HETATM   42  C16 1N1 A1009     -11.415   8.909 -35.516  1.00 46.65     0.021 C 
HETATM   43  C17 1N1 A1009     -12.900   8.849 -35.832  1.00 51.19     0.128 C 
ATOM     44 2H16 1N1 A1009     -10.870   8.069 -36.009  1.00  0.00     0.067 H 
ATOM     45 1H16 1N1 A1009     -10.934   9.770 -36.036  1.00  0.00     0.067 H 
HETATM   46  N6  1N1 A1009     -13.604   9.898 -35.100  1.00 55.48     0.093 N 
ATOM     47 2H17 1N1 A1009     -13.097   8.897 -36.927  1.00  0.00     0.082 H 
ATOM     48 1H17 1N1 A1009     -13.329   7.839 -35.634  1.00  0.00     0.082 H 
HETATM   49  C18 1N1 A1009     -13.513   9.584 -33.677  1.00 53.13     0.128 C 
HETATM   50  C19 1N1 A1009     -12.069   9.695 -33.219  1.00 44.65     0.021 C 
ATOM     51 2H18 1N1 A1009     -13.954   8.588 -33.438  1.00  0.00     0.082 H 
ATOM     52 1H18 1N1 A1009     -14.198  10.215 -33.063  1.00  0.00     0.082 H 
ATOM     53 2H19 1N1 A1009     -11.761  10.763 -33.136  1.00  0.00     0.067 H 
ATOM     54 1H19 1N1 A1009     -11.968   9.391 -32.152  1.00  0.00     0.067 H 
HETATM   55  C20 1N1 A1009     -14.994  10.039 -35.549  1.00 60.66     0.133 C 
ATOM     56 2H20 1N1 A1009     -15.474  10.933 -35.087  1.00  0.00     0.083 H 
ATOM     57 1H20 1N1 A1009     -15.638   9.242 -35.111  1.00  0.00     0.083 H 
HETATM   58  C21 1N1 A1009     -15.120  10.073 -37.056  1.00 65.34     0.042 C 
ATOM     59 2H21 1N1 A1009     -15.164  11.116 -37.447  1.00  0.00     0.076 H 
ATOM     60 1H21 1N1 A1009     -14.179   9.749 -37.560  1.00  0.00     0.076 H 
HETATM   61  O1  1N1 A1009     -16.238   9.302 -37.471  1.00 71.02    -0.399 OA
ATOM     62  H1  1N1 A1009     -16.908   9.867 -37.837  1.00  0.00     0.209 HD
ENDMDL
REMARK VINA RESULT:      -8.6      3.420      9.851
REMARK  9 active torsions:
REMARK  status: ('A' for Active; 'I' for Inactive)
REMARK    1  A    between atoms: C2_3  and  C3_4 
REMARK       I    between atoms: C3_4  and  N2_42 
REMARK    2  A    between atoms: C20_30  and  N6_5 
REMARK    3  A    between atoms: C10_11  and  C9_10 
REMARK    4  A    between atoms: C11_15  and  N_36 
REMARK    5  A    between atoms: C13_18  and  N5_54 
REMARK    6  A    between atoms: C14_19  and  C15_20 
REMARK    7  A    between atoms: C20_30  and  C21_33 
REMARK    8  A    between atoms: C21_33  and  O1_61 
REMARK    9  A    between atoms: C4_44  and  N2_42 
REMARK viewdock state: V
HETATM    1  C11 1N1 A1009      -5.446   9.521 -33.258  1.00 36.10     0.111 A 
HETATM    2  C12 1N1 A1009      -5.431   8.424 -34.132  1.00 35.38     0.002 A 
ATOM      3  H12 1N1 A1009      -6.225   7.659 -34.124  1.00  0.00     0.095 H 
HETATM    4  C13 1N1 A1009      -4.344   8.357 -35.020  1.00 36.95     0.108 A 
HETATM    5  C14 1N1 A1009      -3.486  10.310 -34.179  1.00 35.56     0.080 A 
HETATM    6  N3  1N1 A1009      -3.385   9.303 -35.051  1.00 33.46    -0.332 N 
ATOM      7  H3  1N1 A1009      -2.612   9.253 -35.714  1.00  0.00     0.168 HD
HETATM    8  N4  1N1 A1009      -4.473  10.450 -33.300  1.00 36.45    -0.332 N 
ATOM      9  H4  1N1 A1009      -4.492  11.249 -32.666  1.00  0.00     0.168 HD
HETATM   10  N   1N1 A1009      -6.471   9.705 -32.338  1.00 32.81    -0.323 N 
HETATM   11  C   1N1 A1009      -7.810   9.567 -32.517  1.00 30.59     0.150 A 
HETATM   12  N1  1N1 A1009      -8.669   9.794 -31.563  1.00 30.84    -0.345 N 
HETATM   13  S   1N1 A1009      -8.505   9.088 -34.028  1.00 33.35    -0.047 SA
HETATM   14  C1  1N1 A1009      -9.954   9.591 -32.007  1.00 30.16     0.001 A 
ATOM     15  H1  1N1 A1009      -8.422  10.082 -30.617  1.00  0.00     0.167 HD
HETATM   16  C2  1N1 A1009     -10.051   9.217 -33.300  1.00 29.57     0.091 A 
ATOM     17  H1  1N1 A1009     -10.836   9.723 -31.358  1.00  0.00     0.113 H 
ATOM     18  HN  1N1 A1009      -6.177   9.981 -31.400  1.00  0.00     0.169 HD
HETATM   19  C3  1N1 A1009     -11.225   8.900 -34.136  1.00 26.67     0.264 C 
HETATM   20  O   1N1 A1009     -11.508   7.739 -34.416  1.00 26.93    -0.267 OA
HETATM   21  N2  1N1 A1009     -11.966   9.946 -34.576  1.00 30.87    -0.320 N 
ATOM     22  H2  1N1 A1009     -11.632  10.881 -34.342  1.00  0.00     0.169 HD
HETATM   23  C4  1N1 A1009     -13.174   9.858 -35.336  1.00 31.44     0.062 A 
HETATM   24  C9  1N1 A1009     -13.136   9.957 -36.730  1.00 28.89    -0.034 A 
HETATM   25  C8  1N1 A1009     -14.336   9.895 -37.437  1.00 31.86    -0.075 A 
HETATM   26  C7  1N1 A1009     -15.539   9.697 -36.776  1.00 36.32    -0.081 A 
ATOM     27  H8  1N1 A1009     -14.328  10.003 -38.535  1.00  0.00     0.084 H 
HETATM   28  C6  1N1 A1009     -15.569   9.572 -35.399  1.00 35.67    -0.060 A 
ATOM     29  H7  1N1 A1009     -16.478   9.640 -37.351  1.00  0.00     0.083 H 
HETATM   30  C5  1N1 A1009     -14.386   9.645 -34.689  1.00 33.96     0.061 A 
ATOM     31  H6  1N1 A1009     -16.526   9.415 -34.874  1.00  0.00     0.086 H 
HETATM   32 CL   1N1 A1009     -14.434   9.509 -32.961  1.00 43.69    -0.082 Cl
HETATM   33  C10 1N1 A1009     -11.836  10.158 -37.469  1.00 19.47    -0.049 C 
ATOM     34 3H10 1N1 A1009     -12.006   9.898 -38.539  1.00  0.00     0.033 H 
ATOM     35 2H10 1N1 A1009     -11.640  11.254 -37.525  1.00  0.00     0.033 H 
ATOM     36 1H10 1N1 A1009     -10.896   9.657 -37.140  1.00  0.00     0.033 H 
HETATM   37  C15 1N1 A1009      -2.423  11.357 -34.190  1.00 36.31    -0.023 C 
ATOM     38 3H15 1N1 A1009      -2.889  12.351 -33.995  1.00  0.00     0.037 H 
ATOM     39 2H15 1N1 A1009      -1.785  11.240 -33.283  1.00  0.00     0.037 H 
ATOM     40 1H15 1N1 A1009      -1.769  11.431 -35.090  1.00  0.00     0.037 H 
HETATM   41  N5  1N1 A1009      -4.213   7.303 -35.939  1.00 41.20    -0.364 N 
HETATM   42  C16 1N1 A1009      -2.824   6.873 -36.186  1.00 46.65     0.021 C 
HETATM   43  C17 1N1 A1009      -2.713   5.792 -37.247  1.00 51.19     0.128 C 
ATOM     44 2H16 1N1 A1009      -2.333   6.551 -35.237  1.00  0.00     0.067 H 
ATOM     45 1H16 1N1 A1009      -2.178   7.746 -36.439  1.00  0.00     0.067 H 
HETATM   46  N6  1N1 A1009      -3.443   6.197 -38.445  1.00 55.48     0.093 N 
ATOM     47 2H17 1N1 A1009      -1.652   5.533 -37.471  1.00  0.00     0.082 H 
ATOM     48 1H17 1N1 A1009      -3.046   4.798 -36.868  1.00  0.00     0.082 H 
HETATM   49  C18 1N1 A1009      -4.863   6.240 -38.104  1.00 53.13     0.128 C 
HETATM   50  C19 1N1 A1009      -5.116   7.352 -37.102  1.00 44.65     0.021 C 
ATOM     51 2H18 1N1 A1009      -5.237   5.254 -37.741  1.00  0.00     0.082 H 
ATOM     52 1H18 1N1 A1009      -5.508   6.335 -39.009  1.00  0.00     0.082 H 
ATOM     53 2H19 1N1 A1009      -5.071   8.350 -37.597  1.00  0.00     0.067 H 
ATOM     54 1H19 1N1 A1009      -6.182   7.356 -36.776  1.00  0.00     0.067 H 
HETATM   55  C20 1N1 A1009      -3.171   5.307 -39.578  1.00 60.66     0.133 C 
ATOM     56 2H20 1N1 A1009      -3.296   5.844 -40.548  1.00  0.00     0.083 H 
ATOM     57 1H20 1N1 A1009      -3.977   4.544 -39.690  1.00  0.00     0.083 H 
HETATM   58  C21 1N1 A1009      -1.811   4.651 -39.492  1.00 65.34     0.042 C 
ATOM     59 2H21 1N1 A1009      -0.996   5.338 -39.820  1.00  0.00     0.076 H 
ATOM     60 1H21 1N1 A1009      -1.486   4.503 -38.436  1.00  0.00     0.076 H 
HETATM   61  O1  1N1 A1009      -1.807   3.434 -40.224  1.00 71.02    -0.399 OA
ATOM     62  H1  1N1 A1009      -2.444   3.473 -40.928  1.00  0.00     0.209 HD
ENDMDL
REMARK VINA RESULT:      -8.0     10.205     15.650
REMARK  9 active torsions:
REMARK  status: ('A' for Active; 'I' for Inactive)
REMARK    1  A    between atoms: C2_3  and  C3_4 
REMARK       I    between atoms: C3_4  and  N2_42 
REMARK    2  A    between atoms: C20_30  and  N6_5 
REMARK    3  A    between atoms: C10_11  and  C9_10 
REMARK    4  A    between atoms: C11_15  and  N_36 
REMARK    5  A    between atoms: C13_18  and  N5_54 
REMARK    6  A    between atoms: C14_19  and  C15_20 
REMARK    7  A    between atoms: C20_30  and  C21_33 
REMARK    8  A    between atoms: C21_33  and  O1_61 
REMARK    9  A    between atoms: C4_44  and  N2_42 
REMARK viewdock state: V
HETATM    1  C11 1N1 A1009     -12.665   1.593 -28.053  1.00 36.10     0.111 A 
HETATM    2  C12 1N1 A1009     -11.596   2.464 -27.799  1.00 35.38     0.002 A 
ATOM      3  H12 1N1 A1009     -11.545   3.074 -26.882  1.00  0.00     0.095 H 
HETATM    4  C13 1N1 A1009     -10.593   2.514 -28.781  1.00 36.95     0.108 A 
HETATM    5  C14 1N1 A1009     -11.698   0.952 -30.044  1.00 35.56     0.080 A 
HETATM    6  N3  1N1 A1009     -10.639   1.751 -29.891  1.00 33.46    -0.332 N 
ATOM      7  H3  1N1 A1009      -9.894   1.782 -30.587  1.00  0.00     0.168 HD
HETATM    8  N4  1N1 A1009     -12.695   0.846 -29.172  1.00 36.45    -0.332 N 
ATOM      9  H4  1N1 A1009     -13.473   0.209 -29.349  1.00  0.00     0.168 HD
HETATM   10  N   1N1 A1009     -13.716   1.447 -27.155  1.00 32.81    -0.323 N 
HETATM   11  C   1N1 A1009     -14.609   2.379 -26.733  1.00 30.59     0.150 A 
HETATM   12  N1  1N1 A1009     -15.542   2.109 -25.863  1.00 30.84    -0.345 N 
HETATM   13  S   1N1 A1009     -14.592   4.014 -27.302  1.00 33.35    -0.047 SA
HETATM   14  C1  1N1 A1009     -16.303   3.223 -25.602  1.00 30.16     0.001 A 
ATOM     15  H1  1N1 A1009     -15.687   1.195 -25.434  1.00  0.00     0.167 HD
HETATM   16  C2  1N1 A1009     -15.930   4.330 -26.280  1.00 29.57     0.091 A 
ATOM     17  H1  1N1 A1009     -17.150   3.214 -24.897  1.00  0.00     0.113 H 
ATOM     18  HN  1N1 A1009     -13.832   0.514 -26.760  1.00  0.00     0.169 HD
HETATM   19  C3  1N1 A1009     -16.484   5.698 -26.287  1.00 26.67     0.264 C 
HETATM   20  O   1N1 A1009     -15.980   6.581 -26.975  1.00 26.93    -0.267 OA
HETATM   21  N2  1N1 A1009     -17.564   5.927 -25.503  1.00 30.87    -0.320 N 
ATOM     22  H2  1N1 A1009     -17.888   5.154 -24.923  1.00  0.00     0.169 HD
HETATM   23  C4  1N1 A1009     -18.293   7.155 -25.415  1.00 31.44     0.062 A 
HETATM   24  C9  1N1 A1009     -17.934   8.118 -24.468  1.00 28.89    -0.034 A 
HETATM   25  C8  1N1 A1009     -18.684   9.292 -24.392  1.00 31.86    -0.075 A 
HETATM   26  C7  1N1 A1009     -19.738   9.517 -25.265  1.00 36.32    -0.081 A 
ATOM     27  H8  1N1 A1009     -18.436  10.049 -23.629  1.00  0.00     0.084 H 
HETATM   28  C6  1N1 A1009     -20.071   8.573 -26.218  1.00 35.67    -0.060 A 
ATOM     29  H7  1N1 A1009     -20.314  10.455 -25.198  1.00  0.00     0.083 H 
HETATM   30  C5  1N1 A1009     -19.342   7.402 -26.293  1.00 33.96     0.061 A 
ATOM     31  H6  1N1 A1009     -20.909   8.753 -26.912  1.00  0.00     0.086 H 
HETATM   32 CL   1N1 A1009     -19.780   6.214 -27.477  1.00 43.69    -0.082 Cl
HETATM   33  C10 1N1 A1009     -16.783   7.898 -23.519  1.00 19.47    -0.049 C 
ATOM     34 3H10 1N1 A1009     -17.096   8.254 -22.510  1.00  0.00     0.033 H 
ATOM     35 2H10 1N1 A1009     -16.679   6.800 -23.354  1.00  0.00     0.033 H 
ATOM     36 1H10 1N1 A1009     -15.768   8.311 -23.728  1.00  0.00     0.033 H 
HETATM   37  C15 1N1 A1009     -11.771   0.112 -31.276  1.00 36.31    -0.023 C 
ATOM     38 3H15 1N1 A1009     -11.762   0.776 -32.171  1.00  0.00     0.037 H 
ATOM     39 2H15 1N1 A1009     -10.806  -0.432 -31.404  1.00  0.00     0.037 H 
ATOM     40 1H15 1N1 A1009     -12.613  -0.613 -31.367  1.00  0.00     0.037 H 
HETATM   41  N5  1N1 A1009      -9.475   3.353 -28.645  1.00 41.20    -0.364 N 
HETATM   42  C16 1N1 A1009      -8.400   3.108 -29.623  1.00 46.65     0.021 C 
HETATM   43  C17 1N1 A1009      -7.173   3.973 -29.393  1.00 51.19     0.128 C 
ATOM     44 2H16 1N1 A1009      -8.777   3.224 -30.666  1.00  0.00     0.067 H 
ATOM     45 1H16 1N1 A1009      -8.124   2.027 -29.647  1.00  0.00     0.067 H 
HETATM   46  N6  1N1 A1009      -6.755   3.878 -27.997  1.00 55.48     0.093 N 
ATOM     47 2H17 1N1 A1009      -6.345   3.722 -30.096  1.00  0.00     0.082 H 
ATOM     48 1H17 1N1 A1009      -7.340   5.029 -29.710  1.00  0.00     0.082 H 
HETATM   49  C18 1N1 A1009      -7.800   4.488 -27.179  1.00 53.13     0.128 C 
HETATM   50  C19 1N1 A1009      -9.067   3.655 -27.261  1.00 44.65     0.021 C 
ATOM     51 2H18 1N1 A1009      -7.979   5.554 -27.454  1.00  0.00     0.082 H 
ATOM     52 1H18 1N1 A1009      -7.469   4.646 -26.126  1.00  0.00     0.082 H 
ATOM     53 2H19 1N1 A1009      -8.964   2.718 -26.664  1.00  0.00     0.067 H 
ATOM     54 1H19 1N1 A1009      -9.898   4.141 -26.700  1.00  0.00     0.067 H 
HETATM   55  C20 1N1 A1009      -5.444   4.498 -27.775  1.00 60.66     0.133 C 
ATOM     56 2H20 1N1 A1009      -5.082   4.308 -26.738  1.00  0.00     0.083 H 
ATOM     57 1H20 1N1 A1009      -5.529   5.609 -27.735  1.00  0.00     0.083 H 
HETATM   58  C21 1N1 A1009      -4.415   4.069 -28.797  1.00 65.34     0.042 C 
ATOM     59 2H21 1N1 A1009      -4.873   3.881 -29.796  1.00  0.00     0.076 H 
ATOM     60 1H21 1N1 A1009      -3.737   4.908 -29.083  1.00  0.00     0.076 H 
HETATM   61  O1  1N1 A1009      -3.694   2.942 -28.322  1.00 71.02    -0.399 OA
ATOM     62  H1  1N1 A1009      -4.268   2.373 -27.823  1.00  0.00     0.209 HD
ENDMDL
REMARK VINA RESULT:      -7.9     10.711     15.425
REMARK  9 active torsions:
REMARK  status: ('A' for Active; 'I' for Inactive)
REMARK    1  A    between atoms: C2_3  and  C3_4 
REMARK       I    between atoms: C3_4  and  N2_42 
REMARK    2  A    between atoms: C20_30  and  N6_5 
REMARK    3  A    between atoms: C10_11  and  C9_10 
REMARK    4  A    between atoms: C11_15  and  N_36 
REMARK    5  A    between atoms: C13_18  and  N5_54 
REMARK    6  A    between atoms: C14_19  and  C15_20 
REMARK    7  A    between atoms: C20_30  and  C21_33 
REMARK    8  A    between atoms: C21_33  and  O1_61 
REMARK    9  A    between atoms: C4_44  and  N2_42 
REMARK viewdock state: V
HETATM    1  C11 1N1 A1009     -12.873   1.192 -28.460  1.00 36.10     0.111 A 
HETATM    2  C12 1N1 A1009     -11.937   2.150 -28.043  1.00 35.38     0.002 A 
ATOM      3  H12 1N1 A1009     -12.063   2.722 -27.109  1.00  0.00     0.095 H 
HETATM    4  C13 1N1 A1009     -10.829   2.339 -28.885  1.00 36.95     0.108 A 
HETATM    5  C14 1N1 A1009     -11.604   0.735 -30.328  1.00 35.56     0.080 A 
HETATM    6  N3  1N1 A1009     -10.658   1.624 -30.015  1.00 33.46    -0.332 N 
ATOM      7  H3  1N1 A1009      -9.839   1.757 -30.607  1.00  0.00     0.168 HD
HETATM    8  N4  1N1 A1009     -12.687   0.496 -29.596  1.00 36.45    -0.332 N 
ATOM      9  H4  1N1 A1009     -13.368  -0.205 -29.892  1.00  0.00     0.168 HD
HETATM   10  N   1N1 A1009     -14.008   0.908 -27.710  1.00 32.81    -0.323 N 
HETATM   11  C   1N1 A1009     -14.576   1.638 -26.716  1.00 30.59     0.150 A 
HETATM   12  N1  1N1 A1009     -15.639   1.238 -26.076  1.00 30.84    -0.345 N 
HETATM   13  S   1N1 A1009     -13.939   3.161 -26.196  1.00 33.35    -0.047 SA
HETATM   14  C1  1N1 A1009     -16.002   2.153 -25.116  1.00 30.16     0.001 A 
ATOM     15  H1  1N1 A1009     -16.134   0.367 -26.262  1.00  0.00     0.167 HD
HETATM   16  C2  1N1 A1009     -15.200   3.236 -25.039  1.00 29.57     0.091 A 
ATOM     17  H1  1N1 A1009     -16.879   2.013 -24.462  1.00  0.00     0.113 H 
ATOM     18  HN  1N1 A1009     -14.479   0.032 -27.939  1.00  0.00     0.169 HD
HETATM   19  C3  1N1 A1009     -15.253   4.425 -24.165  1.00 26.67     0.264 C 
HETATM   20  O   1N1 A1009     -15.420   4.313 -22.955  1.00 26.93    -0.267 OA
HETATM   21  N2  1N1 A1009     -15.110   5.632 -24.762  1.00 30.87    -0.320 N 
ATOM     22  H2  1N1 A1009     -15.028   5.639 -25.779  1.00  0.00     0.169 HD
HETATM   23  C4  1N1 A1009     -15.063   6.898 -24.097  1.00 31.44     0.062 A 
HETATM   24  C9  1N1 A1009     -13.840   7.420 -23.668  1.00 28.89    -0.034 A 
HETATM   25  C8  1N1 A1009     -13.834   8.644 -22.999  1.00 31.86    -0.075 A 
HETATM   26  C7  1N1 A1009     -15.012   9.348 -22.801  1.00 36.32    -0.081 A 
ATOM     27  H8  1N1 A1009     -12.882   9.056 -22.624  1.00  0.00     0.084 H 
HETATM   28  C6  1N1 A1009     -16.216   8.841 -23.253  1.00 35.67    -0.060 A 
ATOM     29  H7  1N1 A1009     -14.988  10.320 -22.280  1.00  0.00     0.083 H 
HETATM   30  C5  1N1 A1009     -16.233   7.623 -23.905  1.00 33.96     0.061 A 
ATOM     31  H6  1N1 A1009     -17.152   9.401 -23.095  1.00  0.00     0.086 H 
HETATM   32 CL   1N1 A1009     -17.750   6.983 -24.450  1.00 43.69    -0.082 Cl
HETATM   33  C10 1N1 A1009     -12.546   6.675 -23.886  1.00 19.47    -0.049 C 
ATOM     34 3H10 1N1 A1009     -11.770   7.417 -24.189  1.00  0.00     0.033 H 
ATOM     35 2H10 1N1 A1009     -12.170   6.342 -22.891  1.00  0.00     0.033 H 
ATOM     36 1H10 1N1 A1009     -12.483   5.809 -24.585  1.00  0.00     0.033 H 
HETATM   37  C15 1N1 A1009     -11.437  -0.054 -31.584  1.00 36.31    -0.023 C 
ATOM     38 3H15 1N1 A1009     -10.590  -0.768 -31.456  1.00  0.00     0.037 H 
ATOM     39 2H15 1N1 A1009     -12.295  -0.758 -31.690  1.00  0.00     0.037 H 
ATOM     40 1H15 1N1 A1009     -11.302   0.504 -32.540  1.00  0.00     0.037 H 
HETATM   41  N5  1N1 A1009      -9.828   3.275 -28.580  1.00 41.20    -0.364 N 
HETATM   42  C16 1N1 A1009      -8.583   3.118 -29.355  1.00 46.65     0.021 C 
HETATM   43  C17 1N1 A1009      -7.493   4.091 -28.939  1.00 51.19     0.128 C 
ATOM     44 2H16 1N1 A1009      -8.785   3.192 -30.449  1.00  0.00     0.067 H 
ATOM     45 1H16 1N1 A1009      -8.216   2.066 -29.307  1.00  0.00     0.067 H 
HETATM   46  N6  1N1 A1009      -7.314   4.044 -27.490  1.00 55.48     0.093 N 
ATOM     47 2H17 1N1 A1009      -6.539   3.909 -29.486  1.00  0.00     0.082 H 
ATOM     48 1H17 1N1 A1009      -7.693   5.125 -29.304  1.00  0.00     0.082 H 
HETATM   49  C18 1N1 A1009      -8.532   4.564 -26.877  1.00 53.13     0.128 C 
HETATM   50  C19 1N1 A1009      -9.690   3.622 -27.154  1.00 44.65     0.021 C 
ATOM     51 2H18 1N1 A1009      -8.753   5.608 -27.202  1.00  0.00     0.082 H 
ATOM     52 1H18 1N1 A1009      -8.402   4.760 -25.786  1.00  0.00     0.082 H 
ATOM     53 2H19 1N1 A1009      -9.611   2.703 -26.528  1.00  0.00     0.067 H 
ATOM     54 1H19 1N1 A1009     -10.644   4.037 -26.753  1.00  0.00     0.067 H 
HETATM   55  C20 1N1 A1009      -6.119   4.779 -27.063  1.00 60.66     0.133 C 
ATOM     56 2H20 1N1 A1009      -6.342   5.430 -26.186  1.00  0.00     0.083 H 
ATOM     57 1H20 1N1 A1009      -5.847   5.565 -27.806  1.00  0.00     0.083 H 
HETATM   58  C21 1N1 A1009      -4.944   3.870 -26.779  1.00 65.34     0.042 C 
ATOM     59 2H21 1N1 A1009      -4.364   4.204 -25.888  1.00  0.00     0.076 H 
ATOM     60 1H21 1N1 A1009      -5.271   2.874 -26.399  1.00  0.00     0.076 H 
HETATM   61  O1  1N1 A1009      -4.124   3.755 -27.934  1.00 71.02    -0.399 OA
ATOM     62  H1  1N1 A1009      -3.806   4.610 -28.196  1.00  0.00     0.209 HD
ENDMDL
REMARK VINA RESULT:      -7.8     11.785     16.682
REMARK  9 active torsions:
REMARK  status: ('A' for Active; 'I' for Inactive)
REMARK    1  A    between atoms: C2_3  and  C3_4 
REMARK       I    between atoms: C3_4  and  N2_42 
REMARK    2  A    between atoms: C20_30  and  N6_5 
REMARK    3  A    between atoms: C10_11  and  C9_10 
REMARK    4  A    between atoms: C11_15  and  N_36 
REMARK    5  A    between atoms: C13_18  and  N5_54 
REMARK    6  A    between atoms: C14_19  and  C15_20 
REMARK    7  A    between atoms: C20_30  and  C21_33 
REMARK    8  A    between atoms: C21_33  and  O1_61 
REMARK    9  A    between atoms: C4_44  and  N2_42 
REMARK viewdock state: V
HETATM    1  C11 1N1 A1009     -13.096   2.182 -28.145  1.00 36.10     0.111 A 
HETATM    2  C12 1N1 A1009     -11.977   2.996 -27.915  1.00 35.38     0.002 A 
ATOM      3  H12 1N1 A1009     -11.990   3.811 -27.172  1.00  0.00     0.095 H 
HETATM    4  C13 1N1 A1009     -10.838   2.713 -28.686  1.00 36.95     0.108 A 
HETATM    5  C14 1N1 A1009     -11.924   0.983 -29.726  1.00 35.56     0.080 A 
HETATM    6  N3  1N1 A1009     -10.809   1.702 -29.578  1.00 33.46    -0.332 N 
ATOM      7  H3  1N1 A1009      -9.969   1.495 -30.117  1.00  0.00     0.168 HD
HETATM    8  N4  1N1 A1009     -13.049   1.183 -29.046  1.00 36.45    -0.332 N 
ATOM      9  H4  1N1 A1009     -13.863   0.590 -29.205  1.00  0.00     0.168 HD
HETATM   10  N   1N1 A1009     -14.281   2.355 -27.440  1.00 32.81    -0.323 N 
HETATM   11  C   1N1 A1009     -14.513   2.190 -26.112  1.00 30.59     0.150 A 
HETATM   12  N1  1N1 A1009     -15.690   2.368 -25.581  1.00 30.84    -0.345 N 
HETATM   13  S   1N1 A1009     -13.273   1.719 -24.999  1.00 33.35    -0.047 SA
HETATM   14  C1  1N1 A1009     -15.656   2.130 -24.228  1.00 30.16     0.001 A 
ATOM     15  H1  1N1 A1009     -16.523   2.647 -26.099  1.00  0.00     0.167 HD
HETATM   16  C2  1N1 A1009     -14.446   1.766 -23.751  1.00 29.57     0.091 A 
ATOM     17  H1  1N1 A1009     -16.545   2.227 -23.583  1.00  0.00     0.113 H 
ATOM     18  HN  1N1 A1009     -15.085   2.647 -27.995  1.00  0.00     0.169 HD
HETATM   19  C3  1N1 A1009     -13.998   1.437 -22.384  1.00 26.67     0.264 C 
HETATM   20  O   1N1 A1009     -12.857   1.038 -22.171  1.00 26.93    -0.267 OA
HETATM   21  N2  1N1 A1009     -14.902   1.595 -21.388  1.00 30.87    -0.320 N 
ATOM     22  H2  1N1 A1009     -15.843   1.880 -21.657  1.00  0.00     0.169 HD
HETATM   23  C4  1N1 A1009     -14.656   1.400 -19.992  1.00 31.44     0.062 A 
HETATM   24  C9  1N1 A1009     -14.350   2.491 -19.174  1.00 28.89    -0.034 A 
HETATM   25  C8  1N1 A1009     -14.090   2.260 -17.823  1.00 31.86    -0.075 A 
HETATM   26  C7  1N1 A1009     -14.174   0.981 -17.294  1.00 36.32    -0.081 A 
ATOM     27  H8  1N1 A1009     -13.815   3.104 -17.168  1.00  0.00     0.084 H 
HETATM   28  C6  1N1 A1009     -14.504  -0.091 -18.102  1.00 35.67    -0.060 A 
ATOM     29  H7  1N1 A1009     -13.975   0.817 -16.221  1.00  0.00     0.083 H 
HETATM   30  C5  1N1 A1009     -14.751   0.126 -19.444  1.00 33.96     0.061 A 
ATOM     31  H6  1N1 A1009     -14.570  -1.108 -17.680  1.00  0.00     0.086 H 
HETATM   32 CL   1N1 A1009     -15.144  -1.226 -20.455  1.00 43.69    -0.082 Cl
HETATM   33  C10 1N1 A1009     -14.268   3.891 -19.727  1.00 19.47    -0.049 C 
ATOM     34 3H10 1N1 A1009     -14.114   4.590 -18.872  1.00  0.00     0.033 H 
ATOM     35 2H10 1N1 A1009     -13.304   3.986 -20.279  1.00  0.00     0.033 H 
ATOM     36 1H10 1N1 A1009     -15.075   4.311 -20.371  1.00  0.00     0.033 H 
HETATM   37  C15 1N1 A1009     -11.914  -0.131 -30.720  1.00 36.31    -0.023 C 
ATOM     38 3H15 1N1 A1009     -11.299  -0.970 -30.320  1.00  0.00     0.037 H 
ATOM     39 2H15 1N1 A1009     -12.924  -0.603 -30.751  1.00  0.00     0.037 H 
ATOM     40 1H15 1N1 A1009     -11.586   0.099 -31.761  1.00  0.00     0.037 H 
HETATM   41  N5  1N1 A1009      -9.658   3.463 -28.553  1.00 41.20    -0.364 N 
HETATM   42  C16 1N1 A1009      -8.595   3.110 -29.512  1.00 46.65     0.021 C 
HETATM   43  C17 1N1 A1009      -7.305   3.879 -29.284  1.00 51.19     0.128 C 
ATOM     44 2H16 1N1 A1009      -8.950   3.233 -30.562  1.00  0.00     0.067 H 
ATOM     45 1H16 1N1 A1009      -8.407   2.011 -29.509  1.00  0.00     0.067 H 
HETATM   46  N6  1N1 A1009      -6.912   3.781 -27.880  1.00 55.48     0.093 N 
ATOM     47 2H17 1N1 A1009      -6.492   3.548 -29.970  1.00  0.00     0.082 H 
ATOM     48 1H17 1N1 A1009      -7.383   4.938 -29.625  1.00  0.00     0.082 H 
HETATM   49  C18 1N1 A1009      -7.914   4.491 -27.089  1.00 53.13     0.128 C 
HETATM   50  C19 1N1 A1009      -9.242   3.761 -27.171  1.00 44.65     0.021 C 
ATOM     51 2H18 1N1 A1009      -8.003   5.562 -27.389  1.00  0.00     0.082 H 
ATOM     52 1H18 1N1 A1009      -7.583   4.645 -26.035  1.00  0.00     0.082 H 
ATOM     53 2H19 1N1 A1009      -9.223   2.832 -26.553  1.00  0.00     0.067 H 
ATOM     54 1H19 1N1 A1009     -10.038   4.324 -26.631  1.00  0.00     0.067 H 
HETATM   55  C20 1N1 A1009      -5.558   4.299 -27.654  1.00 60.66     0.133 C 
ATOM     56 2H20 1N1 A1009      -5.209   4.068 -26.621  1.00  0.00     0.083 H 
ATOM     57 1H20 1N1 A1009      -5.560   5.413 -27.599  1.00  0.00     0.083 H 
HETATM   58  C21 1N1 A1009      -4.566   3.808 -28.685  1.00 65.34     0.042 C 
ATOM     59 2H21 1N1 A1009      -3.845   3.075 -28.254  1.00  0.00     0.076 H 
ATOM     60 1H21 1N1 A1009      -5.045   3.142 -29.440  1.00  0.00     0.076 H 
HETATM   61  O1  1N1 A1009      -3.904   4.909 -29.291  1.00 71.02    -0.399 OA
ATOM     62  H1  1N1 A1009      -4.519   5.618 -29.440  1.00  0.00     0.209 HD
ENDMDL
