REMARK VINA RESULT:      -8.1      0.000      0.000
REMARK  6 active torsions:
REMARK  status: ('A' for Active; 'I' for Inactive)
REMARK    1  A    between atoms: C1_1  and  C2_2 
REMARK    2  A    between atoms: C5_4  and  C6_5 
REMARK    3  A    between atoms: C6_5  and  N7_21 
REMARK       I    between atoms: C8_6  and  N7_21 
REMARK       I    between atoms: C8_6  and  N10_22 
REMARK    4  A    between atoms: C11_8  and  N10_22 
REMARK    5  A    between atoms: C19_13  and  N20_26 
REMARK    6  A    between atoms: C21_14  and  C23_15 
REMARK       I    between atoms: C21_14  and  N20_26 
REMARK viewdock state: V
HETATM    1  C2  4VD A1002      -7.540   8.883 -33.042  1.00 28.11    -0.035 A 
HETATM    2  C3  4VD A1002      -6.590   8.058 -32.445  1.00 26.24    -0.074 A 
HETATM    3  C5  4VD A1002      -7.876   7.955 -30.414  1.00 28.79    -0.038 A 
HETATM    4  C19 4VD A1002      -8.673   9.241 -32.310  1.00 28.44     0.041 A 
HETATM    5  C4  4VD A1002      -6.753   7.607 -31.147  1.00 26.76    -0.075 A 
HETATM    6  C18 4VD A1002      -8.827   8.773 -31.010  1.00 31.19    -0.049 A 
HETATM    7  H35 4VD A1002      -5.822   7.809 -32.929  1.00 27.10     0.084 H 
HETATM    8  H36 4VD A1002      -6.101   7.050 -30.760  1.00 27.03     0.084 H 
HETATM    9  H45 4VD A1002      -9.591   9.027 -30.518  1.00 31.63     0.087 H 
HETATM   10  C6  4VD A1002      -8.060   7.473 -28.995  1.00 25.55     0.021 C 
HETATM   11  H38 4VD A1002      -8.940   7.049 -28.917  1.00 24.90     0.071 H 
HETATM   12  H37 4VD A1002      -8.046   8.247 -28.395  1.00 25.64     0.071 H 
HETATM   13  N7  4VD A1002      -7.042   6.530 -28.567  1.00 25.39    -0.339 N 
HETATM   14  C8  4VD A1002      -5.859   6.922 -28.054  1.00 19.95     0.320 C 
HETATM   15  N10 4VD A1002      -4.907   5.933 -27.976  1.00 19.18    -0.309 N 
HETATM   16  O9  4VD A1002      -5.653   8.072 -27.682  1.00 20.58    -0.247 OA
HETATM   17  H40 4VD A1002      -5.115   5.156 -28.321  1.00 19.16     0.170 HD
HETATM   18  H39 4VD A1002      -7.246   5.674 -28.562  1.00 25.20     0.164 HD
HETATM   19  C11 4VD A1002      -3.544   6.106 -27.655  1.00 22.89     0.039 A 
HETATM   20  C12 4VD A1002      -2.657   6.453 -28.668  1.00 25.79    -0.057 A 
HETATM   21  H41 4VD A1002      -2.969   6.545 -29.555  1.00 25.04     0.086 H 
HETATM   22  C13 4VD A1002      -1.313   6.630 -28.384  1.00 30.41    -0.078 A 
HETATM   23  C14 4VD A1002      -0.855   6.485 -27.088  1.00 32.10    -0.046 A 
HETATM   24  H42 4VD A1002      -0.712   6.858 -29.073  1.00 30.86     0.083 H 
HETATM   25  H43 4VD A1002       0.057   6.612 -26.884  1.00 32.61     0.088 H 
HETATM   26  C15 4VD A1002      -1.747   6.167 -26.106  1.00 28.02     0.118 A 
HETATM   27  F16 4VD A1002      -1.291   6.020 -24.831  1.00 28.01    -0.206 F 
HETATM   28  C17 4VD A1002      -3.073   5.968 -26.354  1.00 26.16    -0.020 A 
HETATM   29  H44 4VD A1002      -3.653   5.746 -25.654  1.00 25.99     0.091 H 
HETATM   30  N20 4VD A1002      -9.656  10.085 -32.873  1.00 24.43    -0.321 N 
HETATM   31  C21 4VD A1002     -10.707   9.662 -33.627  1.00 21.53     0.274 C 
HETATM   32  O22 4VD A1002     -10.996   8.470 -33.725  1.00 27.50    -0.266 OA
HETATM   33  H46 4VD A1002      -9.551  10.939 -32.748  1.00 24.26     0.169 HD
HETATM   34  C23 4VD A1002     -11.495  10.695 -34.333  1.00 14.81     0.126 A 
HETATM   35  N31 4VD A1002     -12.807  10.506 -34.777  1.00 15.97    -0.301 N 
HETATM   36  C26 4VD A1002     -13.174  11.685 -35.425  1.00 18.04     0.134 A 
HETATM   37  C30 4VD A1002     -13.677   9.439 -34.691  1.00 14.07    -0.013 A 
HETATM   38  N25 4VD A1002     -12.174  12.570 -35.398  1.00 16.47    -0.240 NA
HETATM   39  C27 4VD A1002     -14.477  11.763 -35.953  1.00 17.77    -0.038 A 
HETATM   40  C24 4VD A1002     -11.138  11.957 -34.736  1.00 13.77     0.036 A 
HETATM   41  H47 4VD A1002     -10.311  12.373 -34.572  1.00 13.45     0.118 H 
HETATM   42  H48 4VD A1002     -14.756  12.539 -36.388  1.00 18.32     0.089 H 
HETATM   43  C28 4VD A1002     -15.329  10.671 -35.874  1.00 15.30    -0.078 A 
HETATM   44  C29 4VD A1002     -14.922   9.516 -35.232  1.00 11.91    -0.067 A 
HETATM   45  H49 4VD A1002     -16.202  10.729 -36.230  1.00 15.26     0.083 H 
HETATM   46  H50 4VD A1002     -15.512   8.786 -35.157  1.00 10.00     0.085 H 
HETATM   47  H51 4VD A1002     -13.399   8.651 -34.263  1.00 14.73     0.112 H 
HETATM   48  C1  4VD A1002      -7.314   9.361 -34.454  1.00 26.48    -0.049 C 
HETATM   49  H33 4VD A1002      -8.155   9.683 -34.829  1.00 26.60     0.033 H 
HETATM   50  H32 4VD A1002      -6.978   8.625 -34.996  1.00 25.88     0.033 H 
HETATM   51  H34 4VD A1002      -6.663  10.087 -34.451  1.00 26.18     0.033 H 
ENDMDL
REMARK VINA RESULT:      -7.9      5.366      8.223
REMARK  6 active torsions:
REMARK  status: ('A' for Active; 'I' for Inactive)
REMARK    1  A    between atoms: C1_1  and  C2_2 
REMARK    2  A    between atoms: C5_4  and  C6_5 
REMARK    3  A    between atoms: C6_5  and  N7_21 
REMARK       I    between atoms: C8_6  and  N7_21 
REMARK       I    between atoms: C8_6  and  N10_22 
REMARK    4  A    between atoms: C11_8  and  N10_22 
REMARK    5  A    between atoms: C19_13  and  N20_26 
REMARK    6  A    between atoms: C21_14  and  C23_15 
REMARK       I    between atoms: C21_14  and  N20_26 
REMARK viewdock state: V
HETATM    1  C2  4VD A1002      -4.249   4.540 -30.272  1.00 28.11    -0.035 A 
HETATM    2  C3  4VD A1002      -4.087   3.841 -29.078  1.00 26.24    -0.074 A 
HETATM    3  C5  4VD A1002      -5.965   4.977 -28.093  1.00 28.79    -0.038 A 
HETATM    4  C19 4VD A1002      -5.290   5.465 -30.371  1.00 28.44     0.041 A 
HETATM    5  C4  4VD A1002      -4.929   4.063 -28.002  1.00 26.76    -0.075 A 
HETATM    6  C18 4VD A1002      -6.132   5.671 -29.285  1.00 31.19    -0.049 A 
HETATM    7  H35 4VD A1002      -3.390   3.214 -28.998  1.00 27.10     0.084 H 
HETATM    8  H36 4VD A1002      -4.804   3.581 -27.204  1.00 27.03     0.084 H 
HETATM    9  H45 4VD A1002      -6.827   6.305 -29.358  1.00 31.63     0.087 H 
HETATM   10  C6  4VD A1002      -6.885   5.231 -26.924  1.00 25.55     0.021 C 
HETATM   11  H38 4VD A1002      -7.346   6.086 -27.063  1.00 24.90     0.071 H 
HETATM   12  H37 4VD A1002      -6.347   5.310 -26.109  1.00 25.64     0.071 H 
HETATM   13  N7  4VD A1002      -7.877   4.188 -26.730  1.00 25.39    -0.339 N 
HETATM   14  C8  4VD A1002      -9.087   4.217 -27.323  1.00 19.95     0.320 C 
HETATM   15  N10 4VD A1002     -10.001   3.327 -26.814  1.00 19.18    -0.309 N 
HETATM   16  O9  4VD A1002      -9.346   4.978 -28.249  1.00 20.58    -0.247 OA
HETATM   17  H40 4VD A1002      -9.755   2.864 -26.112  1.00 19.16     0.170 HD
HETATM   18  H39 4VD A1002      -7.640   3.470 -26.281  1.00 25.20     0.164 HD
HETATM   19  C11 4VD A1002     -11.378   3.273 -27.119  1.00 22.89     0.039 A 
HETATM   20  C12 4VD A1002     -11.916   2.075 -27.574  1.00 25.79    -0.057 A 
HETATM   21  H41 4VD A1002     -11.355   1.324 -27.694  1.00 25.04     0.086 H 
HETATM   22  C13 4VD A1002     -13.264   1.990 -27.881  1.00 30.41    -0.078 A 
HETATM   23  C14 4VD A1002     -14.081   3.092 -27.714  1.00 32.10    -0.046 A 
HETATM   24  H42 4VD A1002     -13.625   1.179 -28.196  1.00 30.86     0.083 H 
HETATM   25  H43 4VD A1002     -15.002   3.041 -27.913  1.00 32.61     0.088 H 
HETATM   26  C15 4VD A1002     -13.537   4.251 -27.245  1.00 28.02     0.118 A 
HETATM   27  F16 4VD A1002     -14.345   5.336 -27.086  1.00 28.01    -0.206 F 
HETATM   28  C17 4VD A1002     -12.211   4.374 -26.950  1.00 26.16    -0.020 A 
HETATM   29  H44 4VD A1002     -11.874   5.188 -26.635  1.00 25.99     0.091 H 
HETATM   30  N20 4VD A1002      -5.483   6.203 -31.560  1.00 24.43    -0.321 N 
HETATM   31  C21 4VD A1002      -5.019   7.464 -31.779  1.00 21.53     0.274 C 
HETATM   32  O22 4VD A1002      -4.217   8.001 -31.014  1.00 27.50    -0.266 OA
HETATM   33  H46 4VD A1002      -5.964   5.825 -32.177  1.00 24.26     0.169 HD
HETATM   34  C23 4VD A1002      -5.517   8.172 -32.977  1.00 14.81     0.126 A 
HETATM   35  N31 4VD A1002      -4.854   8.184 -34.207  1.00 15.97    -0.301 N 
HETATM   36  C26 4VD A1002      -5.614   8.989 -35.054  1.00 18.04     0.134 A 
HETATM   37  C30 4VD A1002      -3.683   7.597 -34.642  1.00 14.07    -0.013 A 
HETATM   38  N25 4VD A1002      -6.691   9.459 -34.418  1.00 16.47    -0.240 NA
HETATM   39  C27 4VD A1002      -5.168   9.150 -36.380  1.00 17.77    -0.038 A 
HETATM   40  C24 4VD A1002      -6.624   8.966 -33.138  1.00 13.77     0.036 A 
HETATM   41  H47 4VD A1002      -7.274   9.143 -32.482  1.00 13.45     0.118 H 
HETATM   42  H48 4VD A1002      -5.656   9.678 -36.974  1.00 18.32     0.089 H 
HETATM   43  C28 4VD A1002      -3.978   8.568 -36.791  1.00 15.30    -0.078 A 
HETATM   44  C29 4VD A1002      -3.247   7.784 -35.917  1.00 11.91    -0.067 A 
HETATM   45  H49 4VD A1002      -3.683   8.679 -37.682  1.00 15.26     0.083 H 
HETATM   46  H50 4VD A1002      -2.454   7.369 -36.207  1.00 10.00     0.085 H 
HETATM   47  H51 4VD A1002      -3.182   7.073 -34.048  1.00 14.73     0.112 H 
HETATM   48  C1  4VD A1002      -3.300   4.275 -31.412  1.00 26.48    -0.049 C 
HETATM   49  H33 4VD A1002      -3.717   4.540 -32.253  1.00 26.60     0.033 H 
HETATM   50  H32 4VD A1002      -3.086   3.325 -31.443  1.00 25.88     0.033 H 
HETATM   51  H34 4VD A1002      -2.482   4.788 -31.280  1.00 26.18     0.033 H 
ENDMDL
REMARK VINA RESULT:      -7.8      6.242      9.189
REMARK  6 active torsions:
REMARK  status: ('A' for Active; 'I' for Inactive)
REMARK    1  A    between atoms: C1_1  and  C2_2 
REMARK    2  A    between atoms: C5_4  and  C6_5 
REMARK    3  A    between atoms: C6_5  and  N7_21 
REMARK       I    between atoms: C8_6  and  N7_21 
REMARK       I    between atoms: C8_6  and  N10_22 
REMARK    4  A    between atoms: C11_8  and  N10_22 
REMARK    5  A    between atoms: C19_13  and  N20_26 
REMARK    6  A    between atoms: C21_14  and  C23_15 
REMARK       I    between atoms: C21_14  and  N20_26 
REMARK viewdock state: V
HETATM    1  C2  4VD A1002      -6.376   9.053 -30.916  1.00 28.11    -0.035 A 
HETATM    2  C3  4VD A1002      -5.681   9.995 -31.670  1.00 26.24    -0.074 A 
HETATM    3  C5  4VD A1002      -5.726   8.564 -33.603  1.00 28.79    -0.038 A 
HETATM    4  C19 4VD A1002      -6.752   7.853 -31.524  1.00 28.44     0.041 A 
HETATM    5  C4  4VD A1002      -5.354   9.750 -32.992  1.00 26.76    -0.075 A 
HETATM    6  C18 4VD A1002      -6.424   7.625 -32.855  1.00 31.19    -0.049 A 
HETATM    7  H35 4VD A1002      -5.423  10.808 -31.273  1.00 27.10     0.084 H 
HETATM    8  H36 4VD A1002      -4.885  10.399 -33.486  1.00 27.03     0.084 H 
HETATM    9  H45 4VD A1002      -6.674   6.808 -33.255  1.00 31.63     0.087 H 
HETATM   10  C6  4VD A1002      -5.368   8.284 -35.043  1.00 25.55     0.021 C 
HETATM   11  H38 4VD A1002      -5.061   9.116 -35.461  1.00 24.90     0.071 H 
HETATM   12  H37 4VD A1002      -6.174   7.990 -35.517  1.00 25.64     0.071 H 
HETATM   13  N7  4VD A1002      -4.339   7.271 -35.197  1.00 25.39    -0.339 N 
HETATM   14  C8  4VD A1002      -3.507   7.237 -36.258  1.00 19.95     0.320 C 
HETATM   15  N10 4VD A1002      -2.800   6.067 -36.399  1.00 19.18    -0.309 N 
HETATM   16  O9  4VD A1002      -3.389   8.181 -37.031  1.00 20.58    -0.247 OA
HETATM   17  H40 4VD A1002      -2.989   5.420 -35.840  1.00 19.16     0.170 HD
HETATM   18  H39 4VD A1002      -4.199   6.717 -34.528  1.00 25.20     0.164 HD
HETATM   19  C11 4VD A1002      -2.008   5.696 -37.506  1.00 22.89     0.039 A 
HETATM   20  C12 4VD A1002      -0.754   6.277 -37.656  1.00 25.79    -0.057 A 
HETATM   21  H41 4VD A1002      -0.458   6.925 -37.036  1.00 25.04     0.086 H 
HETATM   22  C13 4VD A1002       0.047   5.932 -38.732  1.00 30.41    -0.078 A 
HETATM   23  C14 4VD A1002      -0.390   4.992 -39.647  1.00 32.10    -0.046 A 
HETATM   24  H42 4VD A1002       0.893   6.332 -38.837  1.00 30.86     0.083 H 
HETATM   25  H43 4VD A1002       0.152   4.745 -40.378  1.00 32.61     0.088 H 
HETATM   26  C15 4VD A1002      -1.613   4.418 -39.467  1.00 28.02     0.118 A 
HETATM   27  F16 4VD A1002      -2.043   3.496 -40.373  1.00 28.01    -0.206 F 
HETATM   28  C17 4VD A1002      -2.435   4.747 -38.430  1.00 26.16    -0.020 A 
HETATM   29  H44 4VD A1002      -3.270   4.335 -38.343  1.00 25.99     0.091 H 
HETATM   30  N20 4VD A1002      -7.449   6.865 -30.793  1.00 24.43    -0.321 N 
HETATM   31  C21 4VD A1002      -6.872   5.789 -30.191  1.00 21.53     0.274 C 
HETATM   32  O22 4VD A1002      -5.650   5.689 -30.076  1.00 27.50    -0.266 OA
HETATM   33  H46 4VD A1002      -8.314   6.945 -30.760  1.00 24.26     0.169 HD
HETATM   34  C23 4VD A1002      -7.772   4.734 -29.679  1.00 14.81     0.126 A 
HETATM   35  N31 4VD A1002      -8.540   4.861 -28.518  1.00 15.97    -0.301 N 
HETATM   36  C26 4VD A1002      -9.208   3.648 -28.356  1.00 18.04     0.134 A 
HETATM   37  C30 4VD A1002      -8.695   5.888 -27.609  1.00 14.07    -0.013 A 
HETATM   38  N25 4VD A1002      -8.897   2.802 -29.342  1.00 16.47    -0.240 NA
HETATM   39  C27 4VD A1002     -10.077   3.522 -27.255  1.00 17.77    -0.038 A 
HETATM   40  C24 4VD A1002      -8.005   3.467 -30.149  1.00 13.77     0.036 A 
HETATM   41  H47 4VD A1002      -7.634   3.091 -30.927  1.00 13.45     0.118 H 
HETATM   42  H48 4VD A1002     -10.543   2.726 -27.120  1.00 18.32     0.089 H 
HETATM   43  C28 4VD A1002     -10.203   4.559 -26.342  1.00 15.30    -0.078 A 
HETATM   44  C29 4VD A1002      -9.514   5.742 -26.534  1.00 11.91    -0.067 A 
HETATM   45  H49 4VD A1002     -10.788   4.469 -25.606  1.00 15.26     0.083 H 
HETATM   46  H50 4VD A1002      -9.623   6.454 -25.927  1.00 10.00     0.085 H 
HETATM   47  H51 4VD A1002      -8.222   6.688 -27.733  1.00 14.73     0.112 H 
HETATM   48  C1  4VD A1002      -6.699   9.357 -29.476  1.00 26.48    -0.049 C 
HETATM   49  H33 4VD A1002      -6.492   8.581 -28.923  1.00 26.60     0.033 H 
HETATM   50  H32 4VD A1002      -7.646   9.571 -29.393  1.00 25.88     0.033 H 
HETATM   51  H34 4VD A1002      -6.167  10.117 -29.178  1.00 26.18     0.033 H 
ENDMDL
REMARK VINA RESULT:      -7.4     11.812     13.080
REMARK  6 active torsions:
REMARK  status: ('A' for Active; 'I' for Inactive)
REMARK    1  A    between atoms: C1_1  and  C2_2 
REMARK    2  A    between atoms: C5_4  and  C6_5 
REMARK    3  A    between atoms: C6_5  and  N7_21 
REMARK       I    between atoms: C8_6  and  N7_21 
REMARK       I    between atoms: C8_6  and  N10_22 
REMARK    4  A    between atoms: C11_8  and  N10_22 
REMARK    5  A    between atoms: C19_13  and  N20_26 
REMARK    6  A    between atoms: C21_14  and  C23_15 
REMARK       I    between atoms: C21_14  and  N20_26 
REMARK viewdock state: V
HETATM    1  C2  4VD A1002     -13.946   2.028 -25.427  1.00 28.11    -0.035 A 
HETATM    2  C3  4VD A1002     -13.080   1.187 -24.732  1.00 26.24    -0.074 A 
HETATM    3  C5  4VD A1002     -14.009   1.881 -22.624  1.00 28.79    -0.038 A 
HETATM    4  C19 4VD A1002     -14.857   2.800 -24.703  1.00 28.44     0.041 A 
HETATM    5  C4  4VD A1002     -13.107   1.121 -23.350  1.00 26.76    -0.075 A 
HETATM    6  C18 4VD A1002     -14.877   2.716 -23.315  1.00 31.19    -0.049 A 
HETATM    7  H35 4VD A1002     -12.462   0.661 -25.209  1.00 27.10     0.084 H 
HETATM    8  H36 4VD A1002     -12.515   0.547 -22.898  1.00 27.03     0.084 H 
HETATM    9  H45 4VD A1002     -15.490   3.248 -22.833  1.00 31.63     0.087 H 
HETATM   10  C6  4VD A1002     -14.042   1.821 -21.116  1.00 25.55     0.021 C 
HETATM   11  H38 4VD A1002     -14.954   1.604 -20.828  1.00 24.90     0.071 H 
HETATM   12  H37 4VD A1002     -13.817   2.705 -20.759  1.00 25.64     0.071 H 
HETATM   13  N7  4VD A1002     -13.127   0.843 -20.555  1.00 25.39    -0.339 N 
HETATM   14  C8  4VD A1002     -13.326   0.267 -19.353  1.00 19.95     0.320 C 
HETATM   15  N10 4VD A1002     -12.238  -0.401 -18.845  1.00 19.18    -0.309 N 
HETATM   16  O9  4VD A1002     -14.399   0.332 -18.764  1.00 20.58    -0.247 OA
HETATM   17  H40 4VD A1002     -11.492  -0.346 -19.300  1.00 19.16     0.170 HD
HETATM   18  H39 4VD A1002     -12.469   0.553 -21.063  1.00 25.20     0.164 HD
HETATM   19  C11 4VD A1002     -12.113  -0.930 -17.543  1.00 22.89     0.039 A 
HETATM   20  C12 4VD A1002     -12.249  -2.302 -17.363  1.00 25.79    -0.057 A 
HETATM   21  H41 4VD A1002     -12.445  -2.856 -18.103  1.00 25.04     0.086 H 
HETATM   22  C13 4VD A1002     -12.130  -2.852 -16.097  1.00 30.41    -0.078 A 
HETATM   23  C14 4VD A1002     -11.854  -2.040 -15.014  1.00 32.10    -0.046 A 
HETATM   24  H42 4VD A1002     -12.230  -3.780 -15.976  1.00 30.86     0.083 H 
HETATM   25  H43 4VD A1002     -11.763  -2.406 -14.149  1.00 32.61     0.088 H 
HETATM   26  C15 4VD A1002     -11.701  -0.700 -15.217  1.00 28.02     0.118 A 
HETATM   27  F16 4VD A1002     -11.434   0.098 -14.147  1.00 28.01    -0.206 F 
HETATM   28  C17 4VD A1002     -11.829  -0.123 -16.446  1.00 26.16    -0.020 A 
HETATM   29  H44 4VD A1002     -11.722   0.801 -16.545  1.00 25.99     0.091 H 
HETATM   30  N20 4VD A1002     -15.745   3.675 -25.367  1.00 24.43    -0.321 N 
HETATM   31  C21 4VD A1002     -15.496   4.986 -25.631  1.00 21.53     0.274 C 
HETATM   32  O22 4VD A1002     -14.377   5.477 -25.476  1.00 27.50    -0.266 OA
HETATM   33  H46 4VD A1002     -16.519   3.346 -25.589  1.00 24.26     0.169 HD
HETATM   34  C23 4VD A1002     -16.626   5.808 -26.115  1.00 14.81     0.126 A 
HETATM   35  N31 4VD A1002     -17.209   6.841 -25.376  1.00 15.97    -0.301 N 
HETATM   36  C26 4VD A1002     -18.259   7.332 -26.152  1.00 18.04     0.134 A 
HETATM   37  C30 4VD A1002     -16.937   7.368 -24.130  1.00 14.07    -0.013 A 
HETATM   38  N25 4VD A1002     -18.344   6.666 -27.307  1.00 16.47    -0.240 NA
HETATM   39  C27 4VD A1002     -19.005   8.409 -25.637  1.00 17.77    -0.038 A 
HETATM   40  C24 4VD A1002     -17.346   5.722 -27.278  1.00 13.77     0.036 A 
HETATM   41  H47 4VD A1002     -17.183   5.121 -27.984  1.00 13.45     0.118 H 
HETATM   42  H48 4VD A1002     -19.711   8.765 -26.133  1.00 18.32     0.089 H 
HETATM   43  C28 4VD A1002     -18.728   8.910 -24.374  1.00 15.30    -0.078 A 
HETATM   44  C29 4VD A1002     -17.685   8.388 -23.632  1.00 11.91    -0.067 A 
HETATM   45  H49 4VD A1002     -19.232   9.633 -24.033  1.00 15.26     0.083 H 
HETATM   46  H50 4VD A1002     -17.483   8.748 -22.786  1.00 10.00     0.085 H 
HETATM   47  H51 4VD A1002     -16.235   7.009 -23.622  1.00 14.73     0.112 H 
HETATM   48  C1  4VD A1002     -13.872   2.078 -26.932  1.00 26.48    -0.049 C 
HETATM   49  H33 4VD A1002     -12.958   1.895 -27.220  1.00 26.60     0.033 H 
HETATM   50  H32 4VD A1002     -14.138   2.962 -27.241  1.00 25.88     0.033 H 
HETATM   51  H34 4VD A1002     -14.470   1.407 -27.309  1.00 26.18     0.033 H 
ENDMDL
REMARK VINA RESULT:      -7.2      9.118     11.772
REMARK  6 active torsions:
REMARK  status: ('A' for Active; 'I' for Inactive)
REMARK    1  A    between atoms: C1_1  and  C2_2 
REMARK    2  A    between atoms: C5_4  and  C6_5 
REMARK    3  A    between atoms: C6_5  and  N7_21 
REMARK       I    between atoms: C8_6  and  N7_21 
REMARK       I    between atoms: C8_6  and  N10_22 
REMARK    4  A    between atoms: C11_8  and  N10_22 
REMARK    5  A    between atoms: C19_13  and  N20_26 
REMARK    6  A    between atoms: C21_14  and  C23_15 
REMARK       I    between atoms: C21_14  and  N20_26 
REMARK viewdock state: V
HETATM    1  C2  4VD A1002       2.705  10.820 -36.030  1.00 28.11    -0.035 A 
HETATM    2  C3  4VD A1002       3.966  11.283 -35.660  1.00 26.24    -0.074 A 
HETATM    3  C5  4VD A1002       4.630   9.080 -34.957  1.00 28.79    -0.038 A 
HETATM    4  C19 4VD A1002       2.413   9.465 -35.862  1.00 28.44     0.041 A 
HETATM    5  C4  4VD A1002       4.911  10.426 -35.123  1.00 26.76    -0.075 A 
HETATM    6  C18 4VD A1002       3.375   8.615 -35.330  1.00 31.19    -0.049 A 
HETATM    7  H35 4VD A1002       4.176  12.194 -35.769  1.00 27.10     0.084 H 
HETATM    8  H36 4VD A1002       5.757  10.757 -34.880  1.00 27.03     0.084 H 
HETATM    9  H45 4VD A1002       3.166   7.703 -35.212  1.00 31.63     0.087 H 
HETATM   10  C6  4VD A1002       5.652   8.138 -34.367  1.00 25.55     0.021 C 
HETATM   11  H38 4VD A1002       6.326   7.934 -35.049  1.00 24.90     0.071 H 
HETATM   12  H37 4VD A1002       5.206   7.300 -34.125  1.00 25.64     0.071 H 
HETATM   13  N7  4VD A1002       6.318   8.670 -33.191  1.00 25.39    -0.339 N 
HETATM   14  C8  4VD A1002       5.953   8.337 -31.937  1.00 19.95     0.320 C 
HETATM   15  N10 4VD A1002       6.477   9.138 -30.951  1.00 19.18    -0.309 N 
HETATM   16  O9  4VD A1002       5.214   7.389 -31.698  1.00 20.58    -0.247 OA
HETATM   17  H40 4VD A1002       6.945   9.831 -31.212  1.00 19.16     0.170 HD
HETATM   18  H39 4VD A1002       7.042   9.155 -33.309  1.00 25.20     0.164 HD
HETATM   19  C11 4VD A1002       6.120   9.130 -29.586  1.00 22.89     0.039 A 
HETATM   20  C12 4VD A1002       5.010   9.862 -29.181  1.00 25.79    -0.057 A 
HETATM   21  H41 4VD A1002       4.525  10.371 -29.813  1.00 25.04     0.086 H 
HETATM   22  C13 4VD A1002       4.633   9.872 -27.848  1.00 30.41    -0.078 A 
HETATM   23  C14 4VD A1002       5.348   9.137 -26.922  1.00 32.10    -0.046 A 
HETATM   24  H42 4VD A1002       3.885  10.375 -27.574  1.00 30.86     0.083 H 
HETATM   25  H43 4VD A1002       5.094   9.131 -26.013  1.00 32.61     0.088 H 
HETATM   26  C15 4VD A1002       6.419   8.407 -27.345  1.00 28.02     0.118 A 
HETATM   27  F16 4VD A1002       7.124   7.687 -26.429  1.00 28.01    -0.206 F 
HETATM   28  C17 4VD A1002       6.828   8.388 -28.646  1.00 26.16    -0.020 A 
HETATM   29  H44 4VD A1002       7.572   7.879 -28.898  1.00 25.99     0.091 H 
HETATM   30  N20 4VD A1002       1.143   8.956 -36.214  1.00 24.43    -0.321 N 
HETATM   31  C21 4VD A1002       0.250   8.417 -35.340  1.00 21.53     0.274 C 
HETATM   32  O22 4VD A1002       0.403   8.503 -34.121  1.00 27.50    -0.266 OA
HETATM   33  H46 4VD A1002       0.943   8.963 -37.060  1.00 24.26     0.169 HD
HETATM   34  C23 4VD A1002      -0.921   7.717 -35.910  1.00 14.81     0.126 A 
HETATM   35  N31 4VD A1002      -0.853   6.849 -37.004  1.00 15.97    -0.301 N 
HETATM   36  C26 4VD A1002      -2.160   6.437 -37.258  1.00 18.04     0.134 A 
HETATM   37  C30 4VD A1002       0.197   6.412 -37.785  1.00 14.07    -0.013 A 
HETATM   38  N25 4VD A1002      -3.009   6.995 -36.390  1.00 16.47    -0.240 NA
HETATM   39  C27 4VD A1002      -2.367   5.527 -38.313  1.00 17.77    -0.038 A 
HETATM   40  C24 4VD A1002      -2.247   7.791 -35.568  1.00 13.77     0.036 A 
HETATM   41  H47 4VD A1002      -2.605   8.293 -34.859  1.00 13.45     0.118 H 
HETATM   42  H48 4VD A1002      -3.229   5.228 -38.506  1.00 18.32     0.089 H 
HETATM   43  C28 4VD A1002      -1.300   5.116 -39.098  1.00 15.30    -0.078 A 
HETATM   44  C29 4VD A1002      -0.020   5.557 -38.820  1.00 11.91    -0.067 A 
HETATM   45  H49 4VD A1002      -1.444   4.506 -39.805  1.00 15.26     0.083 H 
HETATM   46  H50 4VD A1002       0.705   5.255 -39.338  1.00 10.00     0.085 H 
HETATM   47  H51 4VD A1002       1.065   6.717 -37.602  1.00 14.73     0.112 H 
HETATM   48  C1  4VD A1002       1.703  11.793 -36.597  1.00 26.48    -0.049 C 
HETATM   49  H33 4VD A1002       0.813  11.580 -36.259  1.00 26.60     0.033 H 
HETATM   50  H32 4VD A1002       1.704  11.730 -37.569  1.00 25.88     0.033 H 
HETATM   51  H34 4VD A1002       1.942  12.699 -36.330  1.00 26.18     0.033 H 
ENDMDL
