REMARK  12 active torsions:
REMARK  status: ('A' for Active; 'I' for Inactive)
REMARK    1  A    between atoms: C13_1  and  C14_36 
REMARK    2  A    between atoms: C23_45  and  C24_13 
REMARK    3  A    between atoms: C01_16  and  C02_20 
REMARK    4  A    between atoms: C02_20  and  C04_26 
REMARK    5  A    between atoms: C02_20  and  C03_22 
REMARK    6  A    between atoms: C07_31  and  C08_32 
REMARK       I    between atoms: C08_32  and  N10_64 
REMARK    7  A    between atoms: C11_33  and  N10_64 
REMARK    8  A    between atoms: C14_36  and  N15_66 
REMARK    9  A    between atoms: C19_41  and  N18_67 
REMARK   10  A    between atoms: C30_48  and  C31_49 
REMARK   11  A    between atoms: C31_49  and  C32_50 
REMARK   12  A    between atoms: C32_50  and  C33_51 
ROOT
HETATM    1  C08 FEW A1001      11.324 -20.292 -25.474  1.00 31.05     0.256 C 
HETATM    2  N10 FEW A1001      11.926 -20.749 -26.725  1.00 29.50    -0.323 N 
ATOM      3  H10 FEW A1001      12.592 -20.134 -27.192  1.00  0.00     0.169 HD
HETATM    4  O09 FEW A1001      10.548 -20.929 -24.879  1.00 31.55    -0.267 OA
ENDROOT
BRANCH   1   5
HETATM    5  C07 FEW A1001      11.702 -18.873 -24.965  1.00 31.57     0.033 A 
HETATM    6  C06 FEW A1001      12.730 -18.129 -25.578  1.00 35.09    -0.067 A 
HETATM    7  C05 FEW A1001      13.021 -16.863 -25.111  1.00 33.02    -0.074 A 
ATOM      8  H06 FEW A1001      13.297 -18.554 -26.423  1.00  0.00     0.085 H 
HETATM    9  C04 FEW A1001      12.305 -16.345 -24.079  1.00 32.04    -0.036 A 
ATOM     10  H05 FEW A1001      13.831 -16.275 -25.574  1.00  0.00     0.084 H 
HETATM   11  C30 FEW A1001      11.286 -17.086 -23.500  1.00 32.43     0.025 A 
HETATM   12  C29 FEW A1001      10.994 -18.361 -23.962  1.00 30.36    -0.049 A 
ATOM     13  H29 FEW A1001      10.181 -18.946 -23.501  1.00  0.00     0.087 H 
BRANCH   9  14
HETATM   14  C02 FEW A1001      12.609 -14.893 -23.534  1.00 31.80    -0.034 C 
ATOM     15  H02 FEW A1001      11.682 -14.534 -23.028  1.00  0.00     0.046 H 
BRANCH  14  16
HETATM   16  C01 FEW A1001      13.749 -14.871 -22.467  1.00 33.22    -0.069 C 
ATOM     17 3H01 FEW A1001      13.525 -15.572 -21.630  1.00  0.00     0.028 H 
ATOM     18 2H01 FEW A1001      14.675 -15.350 -22.863  1.00  0.00     0.028 H 
ATOM     19 1H01 FEW A1001      13.963 -13.847 -22.082  1.00  0.00     0.028 H 
ENDBRANCH  14  16
BRANCH  14  20
HETATM   20  C03 FEW A1001      12.892 -13.916 -24.710  1.00 33.11    -0.069 C 
ATOM     21 3H03 FEW A1001      13.080 -12.881 -24.340  1.00  0.00     0.028 H 
ATOM     22 2H03 FEW A1001      13.885 -14.119 -25.175  1.00  0.00     0.028 H 
ATOM     23 1H03 FEW A1001      12.078 -13.932 -25.472  1.00  0.00     0.028 H 
ENDBRANCH  14  20
ENDBRANCH   9  14
BRANCH  11  24
HETATM   24  C31 FEW A1001      10.463 -16.543 -22.358  1.00 32.42    -0.059 C 
BRANCH  24  25
HETATM   25  C32 FEW A1001       9.750 -16.121 -21.399  1.00 30.82    -0.041 C 
BRANCH  25  26
HETATM   26  C33 FEW A1001       8.852 -15.598 -20.261  1.00 30.93     0.110 A 
HETATM   27  C34 FEW A1001       7.527 -15.080 -20.410  1.00 31.95     0.013 A 
HETATM   28  N35 FEW A1001       7.116 -14.755 -19.209  1.00 34.31    -0.348 N 
ATOM     29  H34 FEW A1001       6.962 -14.975 -21.351  1.00  0.00     0.116 H 
HETATM   30  C36 FEW A1001       8.130 -15.052 -18.302  1.00 36.39     0.128 A 
ATOM     31  H35 FEW A1001       6.208 -14.353 -18.978  1.00  0.00     0.167 HD
HETATM   32  C37 FEW A1001       8.173 -14.893 -16.961  1.00 33.00     0.020 A 
HETATM   33  N41 FEW A1001       9.162 -15.558 -18.939  1.00 35.21    -0.297 N 
HETATM   34  N38 FEW A1001       9.332 -15.276 -16.250  1.00 37.11    -0.371 N 
ATOM     35  H37 FEW A1001       7.309 -14.467 -16.425  1.00  0.00     0.117 H 
HETATM   36  C39 FEW A1001      10.369 -15.788 -16.896  1.00 39.32    -0.008 A 
ATOM     37  H38 FEW A1001       9.370 -15.158 -15.238  1.00  0.00     0.164 HD
HETATM   38  C40 FEW A1001      10.332 -15.947 -18.232  1.00 35.45     0.002 A 
ATOM     39  H39 FEW A1001      11.270 -16.086 -16.334  1.00  0.00     0.113 H 
ATOM     40  H40 FEW A1001      11.196 -16.372 -18.770  1.00  0.00     0.114 H 
ENDBRANCH  25  26
ENDBRANCH  24  25
ENDBRANCH  11  24
ENDBRANCH   1   5
BRANCH   2  41
HETATM   41  C11 FEW A1001      11.623 -22.056 -27.352  1.00 30.48     0.036 A 
HETATM   42  C28 FEW A1001      10.301 -22.582 -27.290  1.00 27.91    -0.042 A 
HETATM   43  C23 FEW A1001      10.014 -23.762 -27.882  1.00 31.00     0.050 A 
ATOM     44  H28 FEW A1001       9.511 -22.026 -26.758  1.00  0.00     0.088 H 
HETATM   45  C22 FEW A1001      11.030 -24.465 -28.581  1.00 28.35    -0.057 A 
HETATM   46  C13 FEW A1001      12.330 -23.950 -28.656  1.00 29.45    -0.023 A 
ATOM     47  H22 FEW A1001      10.793 -25.425 -29.069  1.00  0.00     0.086 H 
HETATM   48  C12 FEW A1001      12.609 -22.729 -28.054  1.00 31.33    -0.046 A 
ATOM     49  H12 FEW A1001      13.619 -22.294 -28.136  1.00  0.00     0.088 H 
BRANCH  43  50
HETATM   50  C24 FEW A1001       8.621 -24.312 -27.786  1.00 28.50     0.417 C 
HETATM   51  F27 FEW A1001       8.388 -25.221 -28.835  1.00 26.84    -0.166 F 
HETATM   52  F26 FEW A1001       8.431 -24.936 -26.601  1.00 29.95    -0.166 F 
HETATM   53  F25 FEW A1001       7.721 -23.248 -27.887  1.00 28.35    -0.166 F 
ENDBRANCH  43  50
BRANCH  46  54
HETATM   54  C14 FEW A1001      13.427 -24.732 -29.449  1.00 33.14    -0.032 C 
ATOM     55  H14 FEW A1001      13.307 -24.967 -30.520  1.00  0.00     0.103 H 
BRANCH  54  56
HETATM   56  N15 FEW A1001      14.489 -25.094 -28.787  1.00 41.22    -0.288 NA
HETATM   57  C16 FEW A1001      15.540 -24.232 -28.917  1.00 39.68     0.008 C 
HETATM   58  C17 FEW A1001      16.866 -24.947 -28.481  1.00 39.19     0.124 C 
ATOM     59 2H16 FEW A1001      15.374 -23.280 -28.361  1.00  0.00     0.059 H 
ATOM     60 1H16 FEW A1001      15.610 -23.807 -29.946  1.00  0.00     0.059 H 
HETATM   61  N18 FEW A1001      16.769 -25.702 -27.357  1.00 44.08     0.086 N 
ATOM     62 2H17 FEW A1001      17.267 -25.559 -29.322  1.00  0.00     0.081 H 
ATOM     63 1H17 FEW A1001      17.688 -24.201 -28.374  1.00  0.00     0.081 H 
HETATM   64  C20 FEW A1001      15.575 -25.696 -26.670  1.00 38.40     0.124 C 
HETATM   65  C21 FEW A1001      14.265 -25.451 -27.510  1.00 34.34     0.008 C 
ATOM     66 2H20 FEW A1001      15.628 -24.954 -25.840  1.00  0.00     0.081 H 
ATOM     67 1H20 FEW A1001      15.474 -26.645 -26.093  1.00  0.00     0.081 H 
ATOM     68 2H21 FEW A1001      13.600 -26.345 -27.465  1.00  0.00     0.059 H 
ATOM     69 1H21 FEW A1001      13.611 -24.703 -27.004  1.00  0.00     0.059 H 
BRANCH  61  70
HETATM   70  C19 FEW A1001      17.735 -25.433 -26.566  1.00 43.76     0.095 C 
ATOM     71 3H19 FEW A1001      18.727 -25.548 -27.063  1.00  0.00     0.071 H 
ATOM     72 2H19 FEW A1001      17.795 -24.344 -26.334  1.00  0.00     0.071 H 
ATOM     73 1H19 FEW A1001      17.655 -26.053 -25.643  1.00  0.00     0.071 H 
ENDBRANCH  61  70
ENDBRANCH  54  56
ENDBRANCH  46  54
ENDBRANCH   2  41
TORSDOF 12
