REMARK VINA RESULT:     -11.2      0.000      0.000
REMARK  12 active torsions:
REMARK  status: ('A' for Active; 'I' for Inactive)
REMARK    1  A    between atoms: C09_47  and  C10_1 
REMARK    2  A    between atoms: C13_6  and  C20_10 
REMARK    3  A    between atoms: C15_9  and  C16_43 
REMARK       I    between atoms: C20_10  and  N21_11 
REMARK    4  A    between atoms: C22_14  and  N21_11 
REMARK    5  A    between atoms: C27_16  and  O29_23 
REMARK    6  A    between atoms: C25_18  and  C26_39 
REMARK    7  A    between atoms: C30_24  and  O29_23 
REMARK    8  A    between atoms: C1_41  and  C26_39 
REMARK    9  A    between atoms: C2_40  and  C26_39 
REMARK   10  A    between atoms: C09_47  and  N06_50 
REMARK   11  A    between atoms: C02_64  and  N03_55 
REMARK   12  A    between atoms: C01_67  and  C02_64 
REMARK viewdock state: V
HETATM    1  C20 DI1 A1000      -6.293   8.717 -45.863  1.00 35.22     0.256 C 
HETATM    2  N21 DI1 A1000      -5.450   7.718 -45.518  1.00 33.72    -0.323 N 
HETATM    3  H21 DI1 A1000      -5.687   6.785 -45.851  1.00  0.00     0.169 HD
HETATM    4  O40 DI1 A1000      -6.261   9.826 -45.357  1.00 34.16    -0.267 OA
HETATM    5  C13 DI1 A1000      -7.374   8.361 -46.820  1.00 33.40     0.033 A 
HETATM    6  C12 DI1 A1000      -7.509   7.134 -47.452  1.00 34.49    -0.067 A 
HETATM    7  C11 DI1 A1000      -8.511   6.936 -48.379  1.00 31.89    -0.073 A 
HETATM    8  H12 DI1 A1000      -6.812   6.313 -47.213  1.00  0.00     0.085 H 
HETATM    9  C10 DI1 A1000      -9.387   7.957 -48.711  1.00 31.19    -0.015 A 
HETATM   10  H11 DI1 A1000      -8.616   5.949 -48.863  1.00  0.00     0.084 H 
HETATM   11  C15 DI1 A1000      -9.236   9.201 -48.100  1.00 31.14     0.056 A 
HETATM   12  C14 DI1 A1000      -8.234   9.392 -47.159  1.00 32.40    -0.052 A 
HETATM   13  H14 DI1 A1000      -8.122  10.377 -46.674  1.00  0.00     0.086 H 
HETATM   14  C09 DI1 A1000     -10.521   7.704 -49.674  1.00 31.99     0.138 C 
HETATM   15 1H09 DI1 A1000     -10.401   8.305 -50.606  1.00  0.00     0.087 H 
HETATM   16 2H09 DI1 A1000     -11.473   8.146 -49.299  1.00  0.00     0.087 H 
HETATM   17  N06 DI1 A1000     -10.680   6.283 -49.976  1.00 31.70     0.096 N 
HETATM   18  C05 DI1 A1000     -10.407   5.994 -51.388  1.00 31.38     0.138 C 
HETATM   19 1H05 DI1 A1000     -11.051   6.601 -52.066  1.00  0.00     0.082 H 
HETATM   20 2H05 DI1 A1000      -9.413   6.386 -51.708  1.00  0.00     0.082 H 
HETATM   21  C04 DI1 A1000     -10.543   4.507 -51.661  1.00 30.37     0.138 C 
HETATM   22 1H04 DI1 A1000     -10.313   4.259 -52.724  1.00  0.00     0.082 H 
HETATM   23 2H04 DI1 A1000      -9.730   3.921 -51.172  1.00  0.00     0.082 H 
HETATM   24  N03 DI1 A1000     -11.872   4.027 -51.266  1.00 33.96     0.091 N 
HETATM   25  C08 DI1 A1000     -12.118   4.339 -49.856  1.00 32.34     0.138 C 
HETATM   26 1H08 DI1 A1000     -13.095   3.932 -49.506  1.00  0.00     0.082 H 
HETATM   27 2H08 DI1 A1000     -11.446   3.759 -49.180  1.00  0.00     0.082 H 
HETATM   28  C07 DI1 A1000     -12.012   5.811 -49.614  1.00 31.73     0.138 C 
HETATM   29 1H07 DI1 A1000     -12.280   6.082 -48.568  1.00  0.00     0.082 H 
HETATM   30 2H07 DI1 A1000     -12.813   6.378 -50.143  1.00  0.00     0.082 H 
HETATM   31  C02 DI1 A1000     -11.967   2.580 -51.443  1.00 36.77     0.110 C 
HETATM   32 1H02 DI1 A1000     -12.361   2.346 -52.459  1.00  0.00     0.079 H 
HETATM   33 2H02 DI1 A1000     -10.945   2.139 -51.519  1.00  0.00     0.079 H 
HETATM   34  C01 DI1 A1000     -12.750   1.860 -50.420  1.00 38.92    -0.051 C 
HETATM   35 1H01 DI1 A1000     -13.835   2.116 -50.373  1.00  0.00     0.029 H 
HETATM   36 2H01 DI1 A1000     -12.284   2.000 -49.416  1.00  0.00     0.029 H 
HETATM   37 3H01 DI1 A1000     -12.622   0.760 -50.546  1.00  0.00     0.029 H 
HETATM   38  C16 DI1 A1000     -10.145  10.343 -48.395  1.00 34.07     0.418 C 
HETATM   39  F19 DI1 A1000     -10.150  10.660 -49.608  1.00 32.66    -0.166 F 
HETATM   40  F17 DI1 A1000      -9.823  11.385 -47.771  1.00 35.34    -0.166 F 
HETATM   41  F18 DI1 A1000     -11.371  10.104 -48.110  1.00 34.55    -0.166 F 
HETATM   42  C22 DI1 A1000      -4.275   7.835 -44.741  1.00 30.76     0.037 A 
HETATM   43  C28 DI1 A1000      -4.318   8.614 -43.600  1.00 29.62    -0.024 A 
HETATM   44  C27 DI1 A1000      -3.179   8.797 -42.848  1.00 29.96     0.085 A 
HETATM   45  H28 DI1 A1000      -5.265   9.089 -43.290  1.00  0.00     0.091 H 
HETATM   46  C25 DI1 A1000      -1.974   8.187 -43.202  1.00 30.34    -0.020 A 
HETATM   47  C24 DI1 A1000      -1.968   7.369 -44.319  1.00 31.32    -0.072 A 
HETATM   48  C23 DI1 A1000      -3.097   7.200 -45.093  1.00 30.63    -0.056 A 
HETATM   49  H24 DI1 A1000      -1.041   6.841 -44.596  1.00  0.00     0.084 H 
HETATM   50  H23 DI1 A1000      -3.061   6.559 -45.991  1.00  0.00     0.086 H 
HETATM   51  O29 DI1 A1000      -3.402   9.807 -41.972  1.00 30.38    -0.310 OA
HETATM   52  C30 DI1 A1000      -3.693   9.823 -40.642  1.00 34.16     0.076 A 
HETATM   53  C39 DI1 A1000      -3.187  10.820 -39.823  1.00 33.39    -0.042 A 
HETATM   54  C34 DI1 A1000      -3.741  10.997 -38.569  1.00 31.98    -0.020 A 
HETATM   55  H39 DI1 A1000      -2.357  11.461 -40.167  1.00  0.00     0.088 H 
HETATM   56  C33 DI1 A1000      -4.783  10.174 -38.154  1.00 33.51     0.041 A 
HETATM   57  C35 DI1 A1000      -3.433  11.944 -37.453  1.00 32.48     0.035 A 
HETATM   58  C32 DI1 A1000      -5.277   9.183 -38.973  1.00 36.25    -0.054 A 
HETATM   59  N37 DI1 A1000      -5.155  10.521 -36.869  1.00 35.18    -0.326 N 
HETATM   60  C31 DI1 A1000      -4.714   8.998 -40.218  1.00 33.93    -0.048 A 
HETATM   61  H32 DI1 A1000      -6.113   8.545 -38.637  1.00  0.00     0.087 H 
HETATM   62  H31 DI1 A1000      -5.079   8.190 -40.874  1.00  0.00     0.087 H 
HETATM   63  C36 DI1 A1000      -4.423  11.560 -36.392  1.00 33.97     0.226 A 
HETATM   64  H37 DI1 A1000      -5.892  10.051 -36.342  1.00  0.00     0.169 HD
HETATM   65  O38 DI1 A1000      -4.570  12.078 -35.302  1.00 41.19    -0.273 OA
HETATM   66 1H31 DI1 A1000      -3.672  12.952 -37.790  1.00  0.00     0.054 H 
HETATM   67 1H35 DI1 A1000      -2.369  11.935 -37.119  1.00  0.00     0.054 H 
HETATM   68  C26 DI1 A1000      -0.717   8.407 -42.410  1.00 31.24    -0.026 C 
HETATM   69 1H26 DI1 A1000      -0.345   9.439 -42.212  1.00  0.00     0.047 H 
HETATM   70  C1  DI1 A1000       0.406   7.613 -43.069  1.00  0.00    -0.057 C 
HETATM   71  H1  DI1 A1000       0.182   6.699 -43.600  1.00  0.00     0.034 H 
HETATM   72  H2  DI1 A1000       1.425   7.964 -43.005  1.00  0.00     0.034 H 
HETATM   73  C2  DI1 A1000      -0.862   7.688 -41.074  1.00  0.00    -0.057 C 
HETATM   74  H1  DI1 A1000      -0.645   8.210 -40.154  1.00  0.00     0.034 H 
HETATM   75  H3  DI1 A1000      -1.181   6.657 -41.047  1.00  0.00     0.034 H 
ENDMDL
REMARK VINA RESULT:     -10.0      6.536     14.914
REMARK  12 active torsions:
REMARK  status: ('A' for Active; 'I' for Inactive)
REMARK    1  A    between atoms: C09_47  and  C10_1 
REMARK    2  A    between atoms: C13_6  and  C20_10 
REMARK    3  A    between atoms: C15_9  and  C16_43 
REMARK       I    between atoms: C20_10  and  N21_11 
REMARK    4  A    between atoms: C22_14  and  N21_11 
REMARK    5  A    between atoms: C27_16  and  O29_23 
REMARK    6  A    between atoms: C25_18  and  C26_39 
REMARK    7  A    between atoms: C30_24  and  O29_23 
REMARK    8  A    between atoms: C1_41  and  C26_39 
REMARK    9  A    between atoms: C2_40  and  C26_39 
REMARK   10  A    between atoms: C09_47  and  N06_50 
REMARK   11  A    between atoms: C02_64  and  N03_55 
REMARK   12  A    between atoms: C01_67  and  C02_64 
REMARK viewdock state: V
HETATM    1  C20 DI1 A1000     -13.731   1.831 -50.349  1.00 35.22     0.256 C 
HETATM    2  N21 DI1 A1000     -14.997   1.888 -50.817  1.00 33.72    -0.323 N 
HETATM    3  H21 DI1 A1000     -15.424   2.811 -50.866  1.00  0.00     0.169 HD
HETATM    4  O40 DI1 A1000     -13.180   0.790 -50.028  1.00 34.16    -0.267 OA
HETATM    5  C13 DI1 A1000     -13.059   3.136 -50.114  1.00 33.40     0.033 A 
HETATM    6  C12 DI1 A1000     -13.290   3.971 -49.032  1.00 34.49    -0.067 A 
HETATM    7  C11 DI1 A1000     -12.663   5.196 -48.951  1.00 31.89    -0.073 A 
HETATM    8  H12 DI1 A1000     -13.980   3.653 -48.231  1.00  0.00     0.085 H 
HETATM    9  C10 DI1 A1000     -11.807   5.626 -49.953  1.00 31.19    -0.015 A 
HETATM   10  H11 DI1 A1000     -12.845   5.843 -48.075  1.00  0.00     0.084 H 
HETATM   11  C15 DI1 A1000     -11.595   4.804 -51.058  1.00 31.14     0.056 A 
HETATM   12  C14 DI1 A1000     -12.219   3.566 -51.129  1.00 32.40    -0.052 A 
HETATM   13  H14 DI1 A1000     -12.044   2.916 -52.003  1.00  0.00     0.086 H 
HETATM   14  C09 DI1 A1000     -11.074   6.937 -49.817  1.00 31.99     0.138 C 
HETATM   15 1H09 DI1 A1000     -11.785   7.787 -49.691  1.00  0.00     0.087 H 
HETATM   16 2H09 DI1 A1000     -10.605   7.239 -50.782  1.00  0.00     0.087 H 
HETATM   17  N06 DI1 A1000     -10.089   6.908 -48.737  1.00 31.70     0.096 N 
HETATM   18  C05 DI1 A1000     -10.164   8.111 -47.901  1.00 31.38     0.138 C 
HETATM   19 1H05 DI1 A1000     -10.039   9.041 -48.502  1.00  0.00     0.082 H 
HETATM   20 2H05 DI1 A1000     -11.198   8.293 -47.525  1.00  0.00     0.082 H 
HETATM   21  C04 DI1 A1000      -9.156   8.032 -46.768  1.00 30.37     0.138 C 
HETATM   22 1H04 DI1 A1000      -9.214   8.925 -46.101  1.00  0.00     0.082 H 
HETATM   23 2H04 DI1 A1000      -9.431   7.249 -46.023  1.00  0.00     0.082 H 
HETATM   24  N03 DI1 A1000      -7.801   7.832 -47.292  1.00 33.96     0.091 N 
HETATM   25  C08 DI1 A1000      -7.762   6.630 -48.130  1.00 32.34     0.138 C 
HETATM   26 1H08 DI1 A1000      -6.731   6.413 -48.494  1.00  0.00     0.082 H 
HETATM   27 2H08 DI1 A1000      -7.925   5.703 -47.531  1.00  0.00     0.082 H 
HETATM   28  C07 DI1 A1000      -8.737   6.741 -49.258  1.00 31.73     0.138 C 
HETATM   29 1H07 DI1 A1000      -8.664   5.878 -49.959  1.00  0.00     0.082 H 
HETATM   30 2H07 DI1 A1000      -8.460   7.555 -49.968  1.00  0.00     0.082 H 
HETATM   31  C02 DI1 A1000      -6.848   7.663 -46.197  1.00 36.77     0.110 C 
HETATM   32 1H02 DI1 A1000      -7.255   6.947 -45.446  1.00  0.00     0.079 H 
HETATM   33 2H02 DI1 A1000      -5.958   7.094 -46.553  1.00  0.00     0.079 H 
HETATM   34  C01 DI1 A1000      -6.417   8.906 -45.527  1.00 38.92    -0.051 C 
HETATM   35 1H01 DI1 A1000      -7.236   9.589 -45.201  1.00  0.00     0.029 H 
HETATM   36 2H01 DI1 A1000      -5.698   9.458 -46.177  1.00  0.00     0.029 H 
HETATM   37 3H01 DI1 A1000      -5.756   8.663 -44.663  1.00  0.00     0.029 H 
HETATM   38  C16 DI1 A1000     -10.682   5.190 -52.169  1.00 34.07     0.418 C 
HETATM   39  F19 DI1 A1000     -11.012   6.267 -52.718  1.00 32.66    -0.166 F 
HETATM   40  F17 DI1 A1000     -10.653   4.332 -53.086  1.00 35.34    -0.166 F 
HETATM   41  F18 DI1 A1000      -9.470   5.369 -51.791  1.00 34.55    -0.166 F 
HETATM   42  C22 DI1 A1000     -15.790   0.798 -51.244  1.00 30.76     0.037 A 
HETATM   43  C28 DI1 A1000     -16.804   0.360 -50.413  1.00 29.62    -0.024 A 
HETATM   44  C27 DI1 A1000     -17.561  -0.734 -50.770  1.00 29.96     0.085 A 
HETATM   45  H28 DI1 A1000     -17.008   0.886 -49.465  1.00  0.00     0.091 H 
HETATM   46  C25 DI1 A1000     -17.342  -1.402 -51.975  1.00 30.34    -0.020 A 
HETATM   47  C24 DI1 A1000     -16.356  -0.913 -52.815  1.00 31.32    -0.072 A 
HETATM   48  C23 DI1 A1000     -15.575   0.166 -52.456  1.00 30.63    -0.056 A 
HETATM   49  H24 DI1 A1000     -16.192  -1.396 -53.793  1.00  0.00     0.084 H 
HETATM   50  H23 DI1 A1000     -14.782   0.524 -53.134  1.00  0.00     0.086 H 
HETATM   51  O29 DI1 A1000     -18.273  -1.133 -49.687  1.00 30.38    -0.310 OA
HETATM   52  C30 DI1 A1000     -19.132  -0.476 -48.860  1.00 34.16     0.076 A 
HETATM   53  C39 DI1 A1000     -18.693   0.031 -47.647  1.00 33.39    -0.042 A 
HETATM   54  C34 DI1 A1000     -19.483   0.950 -46.983  1.00 31.98    -0.020 A 
HETATM   55  H39 DI1 A1000     -17.728  -0.293 -47.220  1.00  0.00     0.088 H 
HETATM   56  C33 DI1 A1000     -20.698   1.341 -47.538  1.00 33.51     0.041 A 
HETATM   57  C35 DI1 A1000     -19.322   1.667 -45.681  1.00 32.48     0.035 A 
HETATM   58  C32 DI1 A1000     -21.130   0.829 -48.741  1.00 36.25    -0.054 A 
HETATM   59  N37 DI1 A1000     -21.317   2.242 -46.692  1.00 35.18    -0.326 N 
HETATM   60  C31 DI1 A1000     -20.346  -0.099 -49.395  1.00 33.93    -0.048 A 
HETATM   61  H32 DI1 A1000     -22.089   1.156 -49.176  1.00  0.00     0.087 H 
HETATM   62  H31 DI1 A1000     -20.691  -0.541 -50.345  1.00  0.00     0.087 H 
HETATM   63  C36 DI1 A1000     -20.568   2.499 -45.589  1.00 33.97     0.226 A 
HETATM   64  H37 DI1 A1000     -22.229   2.663 -46.875  1.00  0.00     0.169 HD
HETATM   65  O38 DI1 A1000     -20.869   3.277 -44.705  1.00 41.19    -0.273 OA
HETATM   66 1H31 DI1 A1000     -18.471   2.342 -45.771  1.00  0.00     0.054 H 
HETATM   67 1H35 DI1 A1000     -19.144   1.001 -44.805  1.00  0.00     0.054 H 
HETATM   68  C26 DI1 A1000     -18.137  -2.617 -52.359  1.00 31.24    -0.026 C 
HETATM   69 1H26 DI1 A1000     -18.005  -3.578 -51.810  1.00  0.00     0.047 H 
HETATM   70  C1  DI1 A1000     -17.916  -2.882 -53.844  1.00  0.00    -0.057 C 
HETATM   71  H1  DI1 A1000     -17.142  -2.351 -54.378  1.00  0.00     0.034 H 
HETATM   72  H2  DI1 A1000     -18.532  -3.601 -54.362  1.00  0.00     0.034 H 
HETATM   73  C2  DI1 A1000     -19.616  -2.250 -52.327  1.00  0.00    -0.057 C 
HETATM   74  H1  DI1 A1000     -20.288  -2.775 -51.664  1.00  0.00     0.034 H 
HETATM   75  H3  DI1 A1000     -19.992  -1.466 -52.967  1.00  0.00     0.034 H 
ENDMDL
REMARK VINA RESULT:      -9.9      6.697     16.363
REMARK  12 active torsions:
REMARK  status: ('A' for Active; 'I' for Inactive)
REMARK    1  A    between atoms: C09_47  and  C10_1 
REMARK    2  A    between atoms: C13_6  and  C20_10 
REMARK    3  A    between atoms: C15_9  and  C16_43 
REMARK       I    between atoms: C20_10  and  N21_11 
REMARK    4  A    between atoms: C22_14  and  N21_11 
REMARK    5  A    between atoms: C27_16  and  O29_23 
REMARK    6  A    between atoms: C25_18  and  C26_39 
REMARK    7  A    between atoms: C30_24  and  O29_23 
REMARK    8  A    between atoms: C1_41  and  C26_39 
REMARK    9  A    between atoms: C2_40  and  C26_39 
REMARK   10  A    between atoms: C09_47  and  N06_50 
REMARK   11  A    between atoms: C02_64  and  N03_55 
REMARK   12  A    between atoms: C01_67  and  C02_64 
REMARK viewdock state: V
HETATM    1  C20 DI1 A1000     -14.178   1.993 -49.865  1.00 35.22     0.256 C 
HETATM    2  N21 DI1 A1000     -15.497   2.102 -49.596  1.00 33.72    -0.323 N 
HETATM    3  H21 DI1 A1000     -15.817   3.003 -49.242  1.00  0.00     0.169 HD
HETATM    4  O40 DI1 A1000     -13.622   0.927 -50.075  1.00 34.16    -0.267 OA
HETATM    5  C13 DI1 A1000     -13.382   3.245 -49.767  1.00 33.40     0.033 A 
HETATM    6  C12 DI1 A1000     -13.499   4.189 -48.758  1.00 34.49    -0.067 A 
HETATM    7  C11 DI1 A1000     -12.759   5.352 -48.804  1.00 31.89    -0.073 A 
HETATM    8  H12 DI1 A1000     -14.187   4.008 -47.914  1.00  0.00     0.085 H 
HETATM    9  C10 DI1 A1000     -11.903   5.611 -49.863  1.00 31.19    -0.015 A 
HETATM   10  H11 DI1 A1000     -12.851   6.087 -47.986  1.00  0.00     0.084 H 
HETATM   11  C15 DI1 A1000     -11.805   4.678 -50.895  1.00 31.14     0.056 A 
HETATM   12  C14 DI1 A1000     -12.541   3.503 -50.837  1.00 32.40    -0.052 A 
HETATM   13  H14 DI1 A1000     -12.456   2.766 -51.654  1.00  0.00     0.086 H 
HETATM   14  C09 DI1 A1000     -11.049   6.854 -49.864  1.00 31.99     0.138 C 
HETATM   15 1H09 DI1 A1000     -11.676   7.775 -49.815  1.00  0.00     0.087 H 
HETATM   16 2H09 DI1 A1000     -10.574   7.016 -50.861  1.00  0.00     0.087 H 
HETATM   17  N06 DI1 A1000     -10.049   6.836 -48.799  1.00 31.70     0.096 N 
HETATM   18  C05 DI1 A1000     -10.224   7.958 -47.871  1.00 31.38     0.138 C 
HETATM   19 1H05 DI1 A1000     -10.198   8.940 -48.399  1.00  0.00     0.082 H 
HETATM   20 2H05 DI1 A1000     -11.264   8.011 -47.473  1.00  0.00     0.082 H 
HETATM   21  C04 DI1 A1000      -9.195   7.890 -46.756  1.00 30.37     0.138 C 
HETATM   22 1H04 DI1 A1000      -9.327   8.720 -46.021  1.00  0.00     0.082 H 
HETATM   23 2H04 DI1 A1000      -9.383   7.029 -46.072  1.00  0.00     0.082 H 
HETATM   24  N03 DI1 A1000      -7.836   7.861 -47.306  1.00 33.96     0.091 N 
HETATM   25  C08 DI1 A1000      -7.696   6.737 -48.235  1.00 32.34     0.138 C 
HETATM   26 1H08 DI1 A1000      -6.655   6.648 -48.625  1.00  0.00     0.082 H 
HETATM   27 2H08 DI1 A1000      -7.761   5.755 -47.710  1.00  0.00     0.082 H 
HETATM   28  C07 DI1 A1000      -8.695   6.840 -49.343  1.00 31.73     0.138 C 
HETATM   29 1H07 DI1 A1000      -8.552   6.045 -50.110  1.00  0.00     0.082 H 
HETATM   30 2H07 DI1 A1000      -8.509   7.729 -49.990  1.00  0.00     0.082 H 
HETATM   31  C02 DI1 A1000      -6.854   7.701 -46.236  1.00 36.77     0.110 C 
HETATM   32 1H02 DI1 A1000      -7.233   6.979 -45.477  1.00  0.00     0.079 H 
HETATM   33 2H02 DI1 A1000      -5.966   7.144 -46.616  1.00  0.00     0.079 H 
HETATM   34  C01 DI1 A1000      -6.421   8.947 -45.574  1.00 38.92    -0.051 C 
HETATM   35 1H01 DI1 A1000      -7.091   9.827 -45.712  1.00  0.00     0.029 H 
HETATM   36 2H01 DI1 A1000      -5.384   9.206 -45.893  1.00  0.00     0.029 H 
HETATM   37 3H01 DI1 A1000      -6.253   8.762 -44.487  1.00  0.00     0.029 H 
HETATM   38  C16 DI1 A1000     -10.899   4.879 -52.059  1.00 34.07     0.418 C 
HETATM   39  F19 DI1 A1000     -11.138   5.938 -52.684  1.00 32.66    -0.166 F 
HETATM   40  F17 DI1 A1000     -10.993   3.954 -52.904  1.00 35.34    -0.166 F 
HETATM   41  F18 DI1 A1000      -9.662   4.959 -51.732  1.00 34.55    -0.166 F 
HETATM   42  C22 DI1 A1000     -16.478   1.097 -49.752  1.00 30.76     0.037 A 
HETATM   43  C28 DI1 A1000     -16.846   0.733 -51.034  1.00 29.62    -0.024 A 
HETATM   44  C27 DI1 A1000     -17.838  -0.203 -51.225  1.00 29.96     0.085 A 
HETATM   45  H28 DI1 A1000     -16.345   1.191 -51.903  1.00  0.00     0.091 H 
HETATM   46  C25 DI1 A1000     -18.470  -0.818 -50.143  1.00 30.34    -0.020 A 
HETATM   47  C24 DI1 A1000     -18.048  -0.476 -48.870  1.00 31.32    -0.072 A 
HETATM   48  C23 DI1 A1000     -17.073   0.479 -48.667  1.00 30.63    -0.056 A 
HETATM   49  H24 DI1 A1000     -18.500  -0.978 -47.998  1.00  0.00     0.084 H 
HETATM   50  H23 DI1 A1000     -16.769   0.749 -47.641  1.00  0.00     0.086 H 
HETATM   51  O29 DI1 A1000     -18.209  -0.172 -52.528  1.00 30.38    -0.310 OA
HETATM   52  C30 DI1 A1000     -17.517  -0.360 -53.686  1.00 34.16     0.076 A 
HETATM   53  C39 DI1 A1000     -16.648  -1.431 -53.822  1.00 33.39    -0.042 A 
HETATM   54  C34 DI1 A1000     -16.209  -1.778 -55.085  1.00 31.98    -0.020 A 
HETATM   55  H39 DI1 A1000     -16.314  -1.998 -52.935  1.00  0.00     0.088 H 
HETATM   56  C33 DI1 A1000     -16.638  -1.046 -56.188  1.00 33.51     0.041 A 
HETATM   57  C35 DI1 A1000     -15.280  -2.842 -55.575  1.00 32.48     0.035 A 
HETATM   58  C32 DI1 A1000     -17.499   0.020 -56.044  1.00 36.25    -0.054 A 
HETATM   59  N37 DI1 A1000     -16.056  -1.559 -57.331  1.00 35.18    -0.326 N 
HETATM   60  C31 DI1 A1000     -17.924   0.373 -54.781  1.00 33.93    -0.048 A 
HETATM   61  H32 DI1 A1000     -17.842   0.584 -56.928  1.00  0.00     0.087 H 
HETATM   62  H31 DI1 A1000     -18.590   1.242 -54.646  1.00  0.00     0.087 H 
HETATM   63  C36 DI1 A1000     -15.257  -2.624 -57.060  1.00 33.97     0.226 A 
HETATM   64  H37 DI1 A1000     -16.206  -1.181 -58.268  1.00  0.00     0.169 HD
HETATM   65  O38 DI1 A1000     -14.653  -3.274 -57.890  1.00 41.19    -0.273 OA
HETATM   66 1H31 DI1 A1000     -15.743  -3.809 -55.383  1.00  0.00     0.054 H 
HETATM   67 1H35 DI1 A1000     -14.275  -2.838 -55.091  1.00  0.00     0.054 H 
HETATM   68  C26 DI1 A1000     -19.577  -1.814 -50.339  1.00 31.24    -0.026 C 
HETATM   69 1H26 DI1 A1000     -20.444  -1.575 -50.997  1.00  0.00     0.047 H 
HETATM   70  C1  DI1 A1000     -20.113  -2.205 -48.966  1.00  0.00    -0.057 C 
HETATM   71  H1  DI1 A1000     -19.948  -1.559 -48.117  1.00  0.00     0.034 H 
HETATM   72  H2  DI1 A1000     -20.658  -3.129 -48.843  1.00  0.00     0.034 H 
HETATM   73  C2  DI1 A1000     -18.962  -3.124 -50.816  1.00  0.00    -0.057 C 
HETATM   74  H1  DI1 A1000     -18.516  -3.184 -51.798  1.00  0.00     0.034 H 
HETATM   75  H3  DI1 A1000     -18.973  -3.992 -50.174  1.00  0.00     0.034 H 
ENDMDL
REMARK VINA RESULT:      -9.6      8.237     12.017
REMARK  12 active torsions:
REMARK  status: ('A' for Active; 'I' for Inactive)
REMARK    1  A    between atoms: C09_47  and  C10_1 
REMARK    2  A    between atoms: C13_6  and  C20_10 
REMARK    3  A    between atoms: C15_9  and  C16_43 
REMARK       I    between atoms: C20_10  and  N21_11 
REMARK    4  A    between atoms: C22_14  and  N21_11 
REMARK    5  A    between atoms: C27_16  and  O29_23 
REMARK    6  A    between atoms: C25_18  and  C26_39 
REMARK    7  A    between atoms: C30_24  and  O29_23 
REMARK    8  A    between atoms: C1_41  and  C26_39 
REMARK    9  A    between atoms: C2_40  and  C26_39 
REMARK   10  A    between atoms: C09_47  and  N06_50 
REMARK   11  A    between atoms: C02_64  and  N03_55 
REMARK   12  A    between atoms: C01_67  and  C02_64 
REMARK viewdock state: V
HETATM    1  C20 DI1 A1000      -7.941   9.810 -37.674  1.00 35.22     0.256 C 
HETATM    2  N21 DI1 A1000      -8.385  10.921 -38.301  1.00 33.72    -0.323 N 
HETATM    3  H21 DI1 A1000      -7.675  11.574 -38.629  1.00  0.00     0.169 HD
HETATM    4  O40 DI1 A1000      -8.666   9.062 -37.039  1.00 34.16    -0.267 OA
HETATM    5  C13 DI1 A1000      -6.469   9.596 -37.681  1.00 33.40     0.033 A 
HETATM    6  C12 DI1 A1000      -5.839   8.370 -37.534  1.00 34.49    -0.067 A 
HETATM    7  C11 DI1 A1000      -4.463   8.296 -37.484  1.00 31.89    -0.073 A 
HETATM    8  H12 DI1 A1000      -6.442   7.448 -37.457  1.00  0.00     0.085 H 
HETATM    9  C10 DI1 A1000      -3.684   9.441 -37.560  1.00 31.19    -0.015 A 
HETATM   10  H11 DI1 A1000      -3.975   7.311 -37.382  1.00  0.00     0.084 H 
HETATM   11  C15 DI1 A1000      -4.315  10.679 -37.677  1.00 31.14     0.056 A 
HETATM   12  C14 DI1 A1000      -5.700  10.746 -37.740  1.00 32.40    -0.052 A 
HETATM   13  H14 DI1 A1000      -6.193  11.728 -37.838  1.00  0.00     0.086 H 
HETATM   14  C09 DI1 A1000      -2.180   9.338 -37.574  1.00 31.99     0.138 C 
HETATM   15 1H09 DI1 A1000      -1.791   8.962 -36.599  1.00  0.00     0.087 H 
HETATM   16 2H09 DI1 A1000      -1.707  10.348 -37.577  1.00  0.00     0.087 H 
HETATM   17  N06 DI1 A1000      -1.694   8.524 -38.687  1.00 31.70     0.096 N 
HETATM   18  C05 DI1 A1000      -0.314   8.075 -38.471  1.00 31.38     0.138 C 
HETATM   19 1H05 DI1 A1000       0.377   8.933 -38.298  1.00  0.00     0.082 H 
HETATM   20 2H05 DI1 A1000      -0.193   7.563 -37.488  1.00  0.00     0.082 H 
HETATM   21  C04 DI1 A1000       0.147   7.202 -39.624  1.00 30.37     0.138 C 
HETATM   22 1H04 DI1 A1000       1.185   6.826 -39.468  1.00  0.00     0.082 H 
HETATM   23 2H04 DI1 A1000      -0.386   6.223 -39.640  1.00  0.00     0.082 H 
HETATM   24  N03 DI1 A1000       0.012   7.914 -40.899  1.00 33.96     0.091 N 
HETATM   25  C08 DI1 A1000      -1.372   8.358 -41.081  1.00 32.34     0.138 C 
HETATM   26 1H08 DI1 A1000      -1.524   8.849 -42.071  1.00  0.00     0.082 H 
HETATM   27 2H08 DI1 A1000      -2.068   7.496 -41.216  1.00  0.00     0.082 H 
HETATM   28  C07 DI1 A1000      -1.796   9.242 -39.953  1.00 31.73     0.138 C 
HETATM   29 1H07 DI1 A1000      -2.816   9.662 -40.112  1.00  0.00     0.082 H 
HETATM   30 2H07 DI1 A1000      -1.224  10.199 -39.937  1.00  0.00     0.082 H 
HETATM   31  C02 DI1 A1000       0.368   7.039 -42.014  1.00 36.77     0.110 C 
HETATM   32 1H02 DI1 A1000       1.463   7.103 -42.213  1.00  0.00     0.079 H 
HETATM   33 2H02 DI1 A1000       0.284   5.972 -41.701  1.00  0.00     0.079 H 
HETATM   34  C01 DI1 A1000      -0.385   7.258 -43.264  1.00 38.92    -0.051 C 
HETATM   35 1H01 DI1 A1000      -1.496   7.250 -43.167  1.00  0.00     0.029 H 
HETATM   36 2H01 DI1 A1000      -0.066   6.517 -44.035  1.00  0.00     0.029 H 
HETATM   37 3H01 DI1 A1000      -0.051   8.205 -43.750  1.00  0.00     0.029 H 
HETATM   38  C16 DI1 A1000      -3.547  11.951 -37.776  1.00 34.07     0.418 C 
HETATM   39  F19 DI1 A1000      -4.262  12.965 -37.600  1.00 32.66    -0.166 F 
HETATM   40  F17 DI1 A1000      -3.012  12.101 -38.902  1.00 35.34    -0.166 F 
HETATM   41  F18 DI1 A1000      -2.613  12.049 -36.905  1.00 34.55    -0.166 F 
HETATM   42  C22 DI1 A1000      -9.732  11.271 -38.547  1.00 30.76     0.037 A 
HETATM   43  C28 DI1 A1000     -10.432  11.926 -37.550  1.00 29.62    -0.024 A 
HETATM   44  C27 DI1 A1000     -11.762  12.233 -37.732  1.00 29.96     0.085 A 
HETATM   45  H28 DI1 A1000      -9.925  12.203 -36.610  1.00  0.00     0.091 H 
HETATM   46  C25 DI1 A1000     -12.420  11.918 -38.921  1.00 30.34    -0.020 A 
HETATM   47  C24 DI1 A1000     -11.686  11.310 -39.925  1.00 31.32    -0.072 A 
HETATM   48  C23 DI1 A1000     -10.360  10.975 -39.743  1.00 30.63    -0.056 A 
HETATM   49  H24 DI1 A1000     -12.170  11.090 -40.890  1.00  0.00     0.084 H 
HETATM   50  H23 DI1 A1000      -9.801  10.472 -40.551  1.00  0.00     0.086 H 
HETATM   51  O29 DI1 A1000     -12.284  12.597 -36.535  1.00 30.38    -0.310 OA
HETATM   52  C30 DI1 A1000     -11.836  12.458 -35.256  1.00 34.16     0.076 A 
HETATM   53  C39 DI1 A1000     -12.033  13.468 -34.328  1.00 33.39    -0.042 A 
HETATM   54  C34 DI1 A1000     -11.861  13.183 -32.986  1.00 31.98    -0.020 A 
HETATM   55  H39 DI1 A1000     -12.323  14.481 -34.654  1.00  0.00     0.088 H 
HETATM   56  C33 DI1 A1000     -11.490  11.900 -32.597  1.00 33.51     0.041 A 
HETATM   57  C35 DI1 A1000     -11.974  14.020 -31.753  1.00 32.48     0.035 A 
HETATM   58  C32 DI1 A1000     -11.292  10.902 -33.527  1.00 36.25    -0.054 A 
HETATM   59  N37 DI1 A1000     -11.357  11.859 -31.222  1.00 35.18    -0.326 N 
HETATM   60  C31 DI1 A1000     -11.451  11.193 -34.866  1.00 33.93    -0.048 A 
HETATM   61  H32 DI1 A1000     -11.010   9.886 -33.204  1.00  0.00     0.087 H 
HETATM   62  H31 DI1 A1000     -11.268  10.413 -35.625  1.00  0.00     0.087 H 
HETATM   63  C36 DI1 A1000     -11.639  13.058 -30.650  1.00 33.97     0.226 A 
HETATM   64  H37 DI1 A1000     -11.079  11.028 -30.700  1.00  0.00     0.169 HD
HETATM   65  O38 DI1 A1000     -11.627  13.284 -29.456  1.00 41.19    -0.273 OA
HETATM   66 1H31 DI1 A1000     -13.017  14.315 -31.639  1.00  0.00     0.054 H 
HETATM   67 1H35 DI1 A1000     -11.353  14.947 -31.764  1.00  0.00     0.054 H 
HETATM   68  C26 DI1 A1000     -13.879  12.216 -39.118  1.00 31.24    -0.026 C 
HETATM   69 1H26 DI1 A1000     -14.485  12.653 -38.290  1.00  0.00     0.047 H 
HETATM   70  C1  DI1 A1000     -14.567  10.941 -39.590  1.00  0.00    -0.057 C 
HETATM   71  H1  DI1 A1000     -14.989  10.255 -38.869  1.00  0.00     0.034 H 
HETATM   72  H2  DI1 A1000     -14.634  10.721 -40.645  1.00  0.00     0.034 H 
HETATM   73  C2  DI1 A1000     -14.023  13.116 -40.339  1.00  0.00    -0.057 C 
HETATM   74  H1  DI1 A1000     -14.705  12.846 -41.131  1.00  0.00     0.034 H 
HETATM   75  H3  DI1 A1000     -13.441  14.024 -40.413  1.00  0.00     0.034 H 
ENDMDL
REMARK VINA RESULT:      -9.2      8.206     11.824
REMARK  12 active torsions:
REMARK  status: ('A' for Active; 'I' for Inactive)
REMARK    1  A    between atoms: C09_47  and  C10_1 
REMARK    2  A    between atoms: C13_6  and  C20_10 
REMARK    3  A    between atoms: C15_9  and  C16_43 
REMARK       I    between atoms: C20_10  and  N21_11 
REMARK    4  A    between atoms: C22_14  and  N21_11 
REMARK    5  A    between atoms: C27_16  and  O29_23 
REMARK    6  A    between atoms: C25_18  and  C26_39 
REMARK    7  A    between atoms: C30_24  and  O29_23 
REMARK    8  A    between atoms: C1_41  and  C26_39 
REMARK    9  A    between atoms: C2_40  and  C26_39 
REMARK   10  A    between atoms: C09_47  and  N06_50 
REMARK   11  A    between atoms: C02_64  and  N03_55 
REMARK   12  A    between atoms: C01_67  and  C02_64 
REMARK viewdock state: V
HETATM    1  C20 DI1 A1000      -4.215   5.505 -36.006  1.00 35.22     0.256 C 
HETATM    2  N21 DI1 A1000      -4.069   6.809 -36.327  1.00 33.72    -0.323 N 
HETATM    3  H21 DI1 A1000      -4.894   7.398 -36.228  1.00  0.00     0.169 HD
HETATM    4  O40 DI1 A1000      -3.391   4.649 -36.285  1.00 34.16    -0.267 OA
HETATM    5  C13 DI1 A1000      -5.514   5.122 -35.393  1.00 33.40     0.033 A 
HETATM    6  C12 DI1 A1000      -6.701   5.825 -35.531  1.00 34.49    -0.067 A 
HETATM    7  C11 DI1 A1000      -7.833   5.418 -34.858  1.00 31.89    -0.073 A 
HETATM    8  H12 DI1 A1000      -6.739   6.715 -36.183  1.00  0.00     0.085 H 
HETATM    9  C10 DI1 A1000      -7.806   4.315 -34.019  1.00 31.19    -0.015 A 
HETATM   10  H11 DI1 A1000      -8.775   5.979 -34.990  1.00  0.00     0.084 H 
HETATM   11  C15 DI1 A1000      -6.608   3.623 -33.853  1.00 31.14     0.056 A 
HETATM   12  C14 DI1 A1000      -5.473   4.029 -34.543  1.00 32.40    -0.052 A 
HETATM   13  H14 DI1 A1000      -4.528   3.474 -34.412  1.00  0.00     0.086 H 
HETATM   14  C09 DI1 A1000      -9.069   3.840 -33.345  1.00 31.99     0.138 C 
HETATM   15 1H09 DI1 A1000      -9.411   4.566 -32.569  1.00  0.00     0.087 H 
HETATM   16 2H09 DI1 A1000      -8.870   2.960 -32.690  1.00  0.00     0.087 H 
HETATM   17  N06 DI1 A1000     -10.132   3.554 -34.306  1.00 31.70     0.096 N 
HETATM   18  C05 DI1 A1000     -11.400   3.242 -33.637  1.00 31.38     0.138 C 
HETATM   19 1H05 DI1 A1000     -11.294   2.391 -32.925  1.00  0.00     0.082 H 
HETATM   20 2H05 DI1 A1000     -11.692   4.034 -32.908  1.00  0.00     0.082 H 
HETATM   21  C04 DI1 A1000     -12.491   2.987 -34.662  1.00 30.37     0.138 C 
HETATM   22 1H04 DI1 A1000     -13.473   2.775 -34.175  1.00  0.00     0.082 H 
HETATM   23 2H04 DI1 A1000     -12.772   3.918 -35.207  1.00  0.00     0.082 H 
HETATM   24  N03 DI1 A1000     -12.098   1.915 -35.583  1.00 33.96     0.091 N 
HETATM   25  C08 DI1 A1000     -10.825   2.251 -36.226  1.00 32.34     0.138 C 
HETATM   26 1H08 DI1 A1000     -10.527   1.486 -36.980  1.00  0.00     0.082 H 
HETATM   27 2H08 DI1 A1000     -10.925   3.128 -36.910  1.00  0.00     0.082 H 
HETATM   28  C07 DI1 A1000      -9.756   2.466 -35.203  1.00 31.73     0.138 C 
HETATM   29 1H07 DI1 A1000      -8.759   2.637 -35.670  1.00  0.00     0.082 H 
HETATM   30 2H07 DI1 A1000      -9.519   1.530 -34.646  1.00  0.00     0.082 H 
HETATM   31  C02 DI1 A1000     -13.109   1.737 -36.623  1.00 36.77     0.110 C 
HETATM   32 1H02 DI1 A1000     -13.972   1.161 -36.218  1.00  0.00     0.079 H 
HETATM   33 2H02 DI1 A1000     -13.604   2.712 -36.841  1.00  0.00     0.079 H 
HETATM   34  C01 DI1 A1000     -12.634   1.121 -37.877  1.00 38.92    -0.051 C 
HETATM   35 1H01 DI1 A1000     -11.976   1.761 -38.511  1.00  0.00     0.029 H 
HETATM   36 2H01 DI1 A1000     -13.504   0.761 -38.476  1.00  0.00     0.029 H 
HETATM   37 3H01 DI1 A1000     -12.129   0.152 -37.658  1.00  0.00     0.029 H 
HETATM   38  C16 DI1 A1000      -6.501   2.422 -32.978  1.00 34.07     0.418 C 
HETATM   39  F19 DI1 A1000      -6.750   2.673 -31.776  1.00 32.66    -0.166 F 
HETATM   40  F17 DI1 A1000      -5.350   1.920 -32.993  1.00 35.34    -0.166 F 
HETATM   41  F18 DI1 A1000      -7.318   1.488 -33.298  1.00 34.55    -0.166 F 
HETATM   42  C22 DI1 A1000      -2.891   7.439 -36.790  1.00 30.76     0.037 A 
HETATM   43  C28 DI1 A1000      -3.001   8.374 -37.801  1.00 29.62    -0.024 A 
HETATM   44  C27 DI1 A1000      -1.870   8.967 -38.316  1.00 29.96     0.085 A 
HETATM   45  H28 DI1 A1000      -3.995   8.646 -38.196  1.00  0.00     0.091 H 
HETATM   46  C25 DI1 A1000      -0.603   8.661 -37.817  1.00 30.34    -0.020 A 
HETATM   47  C24 DI1 A1000      -0.522   7.761 -36.768  1.00 31.32    -0.072 A 
HETATM   48  C23 DI1 A1000      -1.646   7.142 -36.263  1.00 30.63    -0.056 A 
HETATM   49  H24 DI1 A1000       0.463   7.534 -36.326  1.00  0.00     0.084 H 
HETATM   50  H23 DI1 A1000      -1.553   6.412 -35.440  1.00  0.00     0.086 H 
HETATM   51  O29 DI1 A1000      -2.206   9.608 -39.462  1.00 30.38    -0.310 OA
HETATM   52  C30 DI1 A1000      -2.029   9.296 -40.776  1.00 34.16     0.076 A 
HETATM   53  C39 DI1 A1000      -1.502   8.068 -41.142  1.00 33.39    -0.042 A 
HETATM   54  C34 DI1 A1000      -1.626   7.654 -42.455  1.00 31.98    -0.020 A 
HETATM   55  H39 DI1 A1000      -0.993   7.431 -40.398  1.00  0.00     0.088 H 
HETATM   56  C33 DI1 A1000      -2.267   8.475 -43.378  1.00 33.51     0.041 A 
HETATM   57  C35 DI1 A1000      -1.169   6.426 -43.175  1.00 32.48     0.035 A 
HETATM   58  C32 DI1 A1000      -2.785   9.697 -43.006  1.00 36.25    -0.054 A 
HETATM   59  N37 DI1 A1000      -2.250   7.868 -44.619  1.00 35.18    -0.326 N 
HETATM   60  C31 DI1 A1000      -2.647  10.113 -41.699  1.00 33.93    -0.048 A 
HETATM   61  H32 DI1 A1000      -3.302  10.332 -43.745  1.00  0.00     0.087 H 
HETATM   62  H31 DI1 A1000      -3.031  11.101 -41.391  1.00  0.00     0.087 H 
HETATM   63  C36 DI1 A1000      -1.639   6.656 -44.582  1.00 33.97     0.226 A 
HETATM   64  H37 DI1 A1000      -2.648   8.282 -45.463  1.00  0.00     0.169 HD
HETATM   65  O38 DI1 A1000      -1.518   5.904 -45.530  1.00 41.19    -0.273 OA
HETATM   66 1H31 DI1 A1000      -1.717   5.575 -42.771  1.00  0.00     0.054 H 
HETATM   67 1H35 DI1 A1000      -0.079   6.212 -43.080  1.00  0.00     0.054 H 
HETATM   68  C26 DI1 A1000       0.641   9.275 -38.393  1.00 31.24    -0.026 C 
HETATM   69 1H26 DI1 A1000       0.594  10.249 -38.933  1.00  0.00     0.047 H 
HETATM   70  C1  DI1 A1000       1.296   8.251 -39.313  1.00  0.00    -0.057 C 
HETATM   71  H1  DI1 A1000       1.297   7.205 -39.043  1.00  0.00     0.034 H 
HETATM   72  H2  DI1 A1000       1.760   8.570 -40.234  1.00  0.00     0.034 H 
HETATM   73  C2  DI1 A1000       1.674   9.397 -37.279  1.00  0.00    -0.057 C 
HETATM   74  H1  DI1 A1000       1.365   9.331 -36.247  1.00  0.00     0.034 H 
HETATM   75  H3  DI1 A1000       2.715   9.550 -37.522  1.00  0.00     0.034 H 
ENDMDL
