MODEL 1
REMARK VINA RESULT:      -8.7      0.000      0.000
REMARK  8 active torsions:
REMARK  status: ('A' for Active; 'I' for Inactive)
REMARK    1  A    between atoms: CAA_1  and  CAY_51 
REMARK    2  A    between atoms: CAB_2  and  CBF_65 
REMARK    3  A    between atoms: CAC_6  and  NBG_67 
REMARK    4  A    between atoms: CAR_41  and  CAZ_52 
REMARK    5  A    between atoms: CAR_41  and  NBH_68 
REMARK       I    between atoms: CAX_50  and  NAW_57 
REMARK    6  A    between atoms: CAX_50  and  CBB_61 
REMARK    7  A    between atoms: CBA_60  and  NAW_57 
REMARK    8  A    between atoms: CBD_63  and  NBI_69 
ROOT
HETATM    1  CAX 5X1 A1001      -8.973   3.648 -28.864  1.00 40.69     0.256 C 
HETATM    2  NAW 5X1 A1001      -7.601   3.153 -29.178  1.00 39.78    -0.323 N 
ATOM      3  HAW 5X1 A1001      -7.490   2.185 -29.478  1.00  0.00     0.169 HD
HETATM    4  OAD 5X1 A1001      -9.160   4.830 -28.485  1.00 43.55    -0.267 OA
ENDROOT
BRANCH   1   5
HETATM    5  CBB 5X1 A1001     -10.206   2.728 -29.012  1.00 37.26     0.033 C 
HETATM    6  CAK 5X1 A1001     -10.204   1.675 -29.966  1.00 33.19    -0.053 C 
HETATM    7  CAY 5X1 A1001     -11.402   0.973 -30.205  1.00 35.05     0.049 C 
ATOM      8  HAK 5X1 A1001      -9.281   1.412 -30.510  1.00  0.00     0.086 H 
HETATM    9  CAJ 5X1 A1001     -12.452   1.115 -29.250  1.00 37.35    -0.060 C 
HETATM   10  CAZ 5X1 A1001     -12.156   1.640 -27.968  1.00 37.22    -0.028 C 
ATOM     11  HAJ 5X1 A1001     -13.484   0.819 -29.507  1.00  0.00     0.085 H 
HETATM   12  CAL 5X1 A1001     -11.082   2.540 -27.883  1.00 38.14    -0.060 C 
ATOM     13  HAL 5X1 A1001     -10.909   3.103 -26.951  1.00  0.00     0.086 H 
BRANCH   7  14
HETATM   14  CAA 5X1 A1001     -11.547   0.053 -31.423  1.00 37.13     0.417 C 
HETATM   15  F03 5X1 A1001     -10.380  -0.459 -31.794  1.00 35.48    -0.166 F 
HETATM   16  F02 5X1 A1001     -12.363  -0.983 -31.142  1.00 36.52    -0.166 F 
HETATM   17  F01 5X1 A1001     -12.039   0.775 -32.442  1.00 41.00    -0.166 F 
ENDBRANCH   7  14
BRANCH  10  18
HETATM   18  CAR 5X1 A1001     -13.230   1.599 -26.861  1.00 33.44     0.137 C 
ATOM     19 2HAR 5X1 A1001     -14.157   1.092 -27.218  1.00  0.00     0.087 H 
ATOM     20 1HAR 5X1 A1001     -12.943   0.892 -26.048  1.00  0.00     0.087 H 
BRANCH  18  21
HETATM   21  NBH 5X1 A1001     -13.520   2.914 -26.335  1.00 31.62     0.096 N 
HETATM   22  CAP 5X1 A1001     -14.555   3.592 -27.015  1.00 31.23     0.138 C 
HETATM   23  CAN 5X1 A1001     -14.701   5.029 -26.527  1.00 32.34     0.138 C 
ATOM     24 2HAP 5X1 A1001     -15.520   3.038 -26.943  1.00  0.00     0.082 H 
ATOM     25 1HAP 5X1 A1001     -14.412   3.549 -28.119  1.00  0.00     0.082 H 
HETATM   26  NBG 5X1 A1001     -14.987   5.011 -25.134  1.00 34.87     0.087 N 
ATOM     27 2HAN 5X1 A1001     -15.458   5.603 -27.111  1.00  0.00     0.082 H 
ATOM     28 1HAN 5X1 A1001     -13.811   5.655 -26.772  1.00  0.00     0.082 H 
HETATM   29  CAO 5X1 A1001     -13.962   4.282 -24.365  1.00 34.63     0.138 C 
HETATM   30  CAQ 5X1 A1001     -13.768   2.877 -24.919  1.00 31.96     0.138 C 
ATOM     31 2HAO 5X1 A1001     -13.000   4.844 -24.321  1.00  0.00     0.082 H 
ATOM     32 1HAO 5X1 A1001     -14.197   4.266 -23.275  1.00  0.00     0.082 H 
ATOM     33 2HAQ 5X1 A1001     -12.966   2.326 -24.375  1.00  0.00     0.082 H 
ATOM     34 1HAQ 5X1 A1001     -14.628   2.213 -24.669  1.00  0.00     0.082 H 
BRANCH  26  35
HETATM   35  CAC 5X1 A1001     -15.138   6.334 -24.625  1.00 33.60     0.095 C 
ATOM     36 3HAC 5X1 A1001     -14.504   6.502 -23.723  1.00  0.00     0.071 H 
ATOM     37 2HAC 5X1 A1001     -14.675   7.090 -25.301  1.00  0.00     0.071 H 
ATOM     38 1HAC 5X1 A1001     -16.210   6.565 -24.421  1.00  0.00     0.071 H 
ENDBRANCH  26  35
ENDBRANCH  18  21
ENDBRANCH  10  18
ENDBRANCH   1   5
BRANCH   2  39
HETATM   39  CBA 5X1 A1001      -6.431   3.978 -29.076  1.00 41.50     0.032 A 
HETATM   40  CAE 5X1 A1001      -5.840   4.202 -27.812  1.00 45.24    -0.073 A 
HETATM   41  CAF 5X1 A1001      -4.667   4.999 -27.668  1.00 48.98    -0.026 A 
ATOM     42  HAE 5X1 A1001      -6.297   3.750 -26.916  1.00  0.00     0.080 H 
HETATM   43  CBE 5X1 A1001      -4.022   5.649 -28.892  1.00 48.86    -0.063 A 
ATOM     44 2HAF 5X1 A1001      -4.875   5.796 -26.916  1.00  0.00     0.045 H 
ATOM     45 1HAF 5X1 A1001      -3.893   4.392 -27.144  1.00  0.00     0.045 H 
HETATM   46  CBC 5X1 A1001      -4.571   5.432 -30.094  1.00 46.40    -0.035 A 
HETATM   47  CBF 5X1 A1001      -2.808   6.514 -28.664  1.00 48.00    -0.019 C 
HETATM   48  CAM 5X1 A1001      -5.836   4.581 -30.209  1.00 44.24    -0.050 A 
HETATM   49  CAS 5X1 A1001      -4.031   6.036 -31.445  1.00 44.80     0.019 C 
ATOM     50  HAM 5X1 A1001      -6.296   4.433 -31.200  1.00  0.00     0.087 H 
HETATM   51  NBI 5X1 A1001      -2.760   6.698 -31.163  1.00 44.82    -0.374 N 
ATOM     52 2HAS 5X1 A1001      -3.953   5.276 -32.257  1.00  0.00     0.071 H 
ATOM     53 1HAS 5X1 A1001      -4.768   6.708 -31.943  1.00  0.00     0.071 H 
HETATM   54  CAT 5X1 A1001      -2.592   7.348 -29.897  1.00 46.06     0.002 C 
ATOM     55 2HAT 5X1 A1001      -3.246   8.250 -29.853  1.00  0.00     0.065 H 
ATOM     56 1HAT 5X1 A1001      -1.583   7.819 -29.853  1.00  0.00     0.065 H 
ATOM     57  HBF 5X1 A1001      -3.048   7.211 -27.828  1.00  0.00     0.049 H 
BRANCH  51  58
HETATM   58  CBD 5X1 A1001      -2.094   7.251 -32.347  1.00 45.56     0.061 A 
HETATM   59  CAH 5X1 A1001      -2.437   8.506 -32.903  1.00 43.92     0.005 A 
HETATM   60  NAU 5X1 A1001      -1.821   8.949 -34.059  1.00 45.64    -0.360 N 
ATOM     61  HAH 5X1 A1001      -3.200   9.134 -32.412  1.00  0.00     0.114 H 
HETATM   62  CAG 5X1 A1001      -0.887   8.198 -34.683  1.00 46.45     0.040 A 
ATOM     63  HAU 5X1 A1001      -2.075   9.858 -34.446  1.00  0.00     0.166 HD
HETATM   64  NAV 5X1 A1001      -0.548   6.970 -34.176  1.00 46.08    -0.360 N 
ATOM     65  HAG 5X1 A1001      -0.398   8.571 -35.599  1.00  0.00     0.140 H 
HETATM   66  CAI 5X1 A1001      -1.129   6.531 -33.069  1.00 47.22     0.005 A 
ATOM     67  HAV 5X1 A1001       0.150   6.396 -34.649  1.00  0.00     0.166 HD
ATOM     68  HAI 5X1 A1001      -0.836   5.537 -32.692  1.00  0.00     0.114 H 
ENDBRANCH  51  58
BRANCH  47  69
HETATM   69  CAB 5X1 A1001      -1.612   5.740 -28.266  1.00 48.09    -0.068 C 
ATOM     70 3HAB 5X1 A1001      -1.669   5.446 -27.192  1.00  0.00     0.028 H 
ATOM     71 2HAB 5X1 A1001      -1.621   4.728 -28.734  1.00  0.00     0.028 H 
ATOM     72 1HAB 5X1 A1001      -0.655   6.269 -28.482  1.00  0.00     0.028 H 
ENDBRANCH  47  69
ENDBRANCH   2  39
TORSDOF 8
ENDMDL
MODEL 2
REMARK VINA RESULT:      -8.7      5.651     12.184
REMARK  8 active torsions:
REMARK  status: ('A' for Active; 'I' for Inactive)
REMARK    1  A    between atoms: CAA_1  and  CAY_51 
REMARK    2  A    between atoms: CAB_2  and  CBF_65 
REMARK    3  A    between atoms: CAC_6  and  NBG_67 
REMARK    4  A    between atoms: CAR_41  and  CAZ_52 
REMARK    5  A    between atoms: CAR_41  and  NBH_68 
REMARK       I    between atoms: CAX_50  and  NAW_57 
REMARK    6  A    between atoms: CAX_50  and  CBB_61 
REMARK    7  A    between atoms: CBA_60  and  NAW_57 
REMARK    8  A    between atoms: CBD_63  and  NBI_69 
ROOT
HETATM    1  CAX 5X1 A1001      -3.919   7.199 -33.626  1.00 40.69     0.256 C 
HETATM    2  NAW 5X1 A1001      -3.551   6.144 -32.638  1.00 39.78    -0.323 N 
ATOM      3  HAW 5X1 A1001      -2.808   5.488 -32.880  1.00  0.00     0.169 HD
HETATM    4  OAD 5X1 A1001      -4.831   8.025 -33.377  1.00 43.55    -0.267 OA
ENDROOT
BRANCH   1   5
HETATM    5  CBB 5X1 A1001      -3.179   7.319 -34.978  1.00 37.26     0.033 C 
HETATM    6  CAK 5X1 A1001      -1.764   7.204 -35.032  1.00 33.19    -0.053 C 
HETATM    7  CAY 5X1 A1001      -1.105   7.498 -36.243  1.00 35.05     0.049 C 
ATOM      8  HAK 5X1 A1001      -1.191   6.891 -34.143  1.00  0.00     0.086 H 
HETATM    9  CAJ 5X1 A1001      -1.897   7.558 -37.428  1.00 37.35    -0.060 C 
HETATM   10  CAZ 5X1 A1001      -3.198   6.996 -37.421  1.00 37.22    -0.028 C 
ATOM     11  HAJ 5X1 A1001      -1.502   8.038 -38.339  1.00  0.00     0.085 H 
HETATM   12  CAL 5X1 A1001      -3.876   6.980 -36.193  1.00 38.14    -0.060 C 
ATOM     13  HAL 5X1 A1001      -4.944   6.707 -36.158  1.00  0.00     0.086 H 
BRANCH   7  14
HETATM   14  CAA 5X1 A1001       0.414   7.697 -36.285  1.00 37.13     0.417 C 
HETATM   15  F03 5X1 A1001       0.743   8.859 -36.834  1.00 35.48    -0.166 F 
HETATM   16  F02 5X1 A1001       0.929   7.688 -35.038  1.00 36.52    -0.166 F 
HETATM   17  F01 5X1 A1001       0.950   6.710 -37.020  1.00 41.00    -0.166 F 
ENDBRANCH   7  14
BRANCH  10  18
HETATM   18  CAR 5X1 A1001      -3.977   6.862 -38.746  1.00 33.44     0.137 C 
ATOM     19 2HAR 5X1 A1001      -5.073   6.983 -38.583  1.00  0.00     0.087 H 
ATOM     20 1HAR 5X1 A1001      -3.798   7.740 -39.410  1.00  0.00     0.087 H 
BRANCH  18  21
HETATM   21  NBH 5X1 A1001      -3.682   5.621 -39.428  1.00 31.62     0.096 N 
HETATM   22  CAP 5X1 A1001      -2.715   4.822 -38.780  1.00 31.23     0.138 C 
HETATM   23  CAN 5X1 A1001      -2.324   3.616 -39.627  1.00 32.34     0.138 C 
ATOM     24 2HAP 5X1 A1001      -3.055   4.514 -37.765  1.00  0.00     0.082 H 
ATOM     25 1HAP 5X1 A1001      -1.821   5.422 -38.490  1.00  0.00     0.082 H 
HETATM   26  NBG 5X1 A1001      -3.488   2.836 -39.874  1.00 34.87     0.087 N 
ATOM     27 2HAN 5X1 A1001      -1.502   3.020 -39.167  1.00  0.00     0.082 H 
ATOM     28 1HAN 5X1 A1001      -1.798   3.906 -40.566  1.00  0.00     0.082 H 
HETATM   29  CAO 5X1 A1001      -4.559   3.622 -40.515  1.00 34.63     0.138 C 
HETATM   30  CAQ 5X1 A1001      -4.877   4.868 -39.700  1.00 31.96     0.138 C 
ATOM     31 2HAO 5X1 A1001      -4.310   3.873 -41.573  1.00  0.00     0.082 H 
ATOM     32 1HAO 5X1 A1001      -5.470   3.006 -40.699  1.00  0.00     0.082 H 
ATOM     33 2HAQ 5X1 A1001      -5.655   5.496 -40.194  1.00  0.00     0.082 H 
ATOM     34 1HAQ 5X1 A1001      -5.429   4.620 -38.764  1.00  0.00     0.082 H 
BRANCH  26  35
HETATM   35  CAC 5X1 A1001      -3.180   1.688 -40.660  1.00 33.60     0.095 C 
ATOM     36 3HAC 5X1 A1001      -2.519   0.979 -40.110  1.00  0.00     0.071 H 
ATOM     37 2HAC 5X1 A1001      -4.069   1.027 -40.788  1.00  0.00     0.071 H 
ATOM     38 1HAC 5X1 A1001      -2.740   1.981 -41.642  1.00  0.00     0.071 H 
ENDBRANCH  26  35
ENDBRANCH  18  21
ENDBRANCH  10  18
ENDBRANCH   1   5
BRANCH   2  39
HETATM   39  CBA 5X1 A1001      -4.196   6.010 -31.362  1.00 41.50     0.032 A 
HETATM   40  CAE 5X1 A1001      -3.662   6.672 -30.234  1.00 45.24    -0.073 A 
HETATM   41  CAF 5X1 A1001      -4.281   6.582 -28.954  1.00 48.98    -0.026 A 
ATOM     42  HAE 5X1 A1001      -2.744   7.273 -30.347  1.00  0.00     0.080 H 
HETATM   43  CBE 5X1 A1001      -5.546   5.744 -28.767  1.00 48.86    -0.063 A 
ATOM     44 2HAF 5X1 A1001      -3.518   6.234 -28.219  1.00  0.00     0.045 H 
ATOM     45 1HAF 5X1 A1001      -4.488   7.615 -28.591  1.00  0.00     0.045 H 
HETATM   46  CBC 5X1 A1001      -6.064   5.122 -29.834  1.00 46.40    -0.035 A 
HETATM   47  CBF 5X1 A1001      -6.126   5.656 -27.378  1.00 48.00    -0.019 C 
HETATM   48  CAM 5X1 A1001      -5.366   5.232 -31.190  1.00 44.24    -0.050 A 
HETATM   49  CAS 5X1 A1001      -7.353   4.218 -29.804  1.00 44.80     0.019 C 
ATOM     50  HAM 5X1 A1001      -5.785   4.693 -32.056  1.00  0.00     0.087 H 
HETATM   51  NBI 5X1 A1001      -7.952   4.337 -28.477  1.00 44.82    -0.374 N 
ATOM     52 2HAS 5X1 A1001      -8.069   4.457 -30.625  1.00  0.00     0.071 H 
ATOM     53 1HAS 5X1 A1001      -7.147   3.160 -30.091  1.00  0.00     0.071 H 
HETATM   54  CAT 5X1 A1001      -7.086   4.499 -27.346  1.00 46.06     0.002 C 
ATOM     55 2HAT 5X1 A1001      -6.522   3.553 -27.172  1.00  0.00     0.065 H 
ATOM     56 1HAT 5X1 A1001      -7.697   4.551 -26.416  1.00  0.00     0.065 H 
ATOM     57  HBF 5X1 A1001      -5.289   5.413 -26.682  1.00  0.00     0.049 H 
BRANCH  51  58
HETATM   58  CBD 5X1 A1001      -9.211   3.604 -28.316  1.00 45.56     0.061 A 
HETATM   59  CAH 5X1 A1001      -9.925   3.563 -27.095  1.00 43.92     0.005 A 
HETATM   60  NAU 5X1 A1001     -11.073   2.802 -26.982  1.00 45.64    -0.360 N 
ATOM     61  HAH 5X1 A1001      -9.562   4.143 -26.229  1.00  0.00     0.114 H 
HETATM   62  CAG 5X1 A1001     -11.536   2.079 -28.026  1.00 46.45     0.040 A 
ATOM     63  HAU 5X1 A1001     -11.580   2.786 -26.096  1.00  0.00     0.166 HD
HETATM   64  NAV 5X1 A1001     -10.855   2.086 -29.216  1.00 46.08    -0.360 N 
ATOM     65  HAG 5X1 A1001     -12.460   1.486 -27.921  1.00  0.00     0.140 H 
HETATM   66  CAI 5X1 A1001      -9.753   2.810 -29.340  1.00 47.22     0.005 A 
ATOM     67  HAV 5X1 A1001     -11.196   1.534 -30.003  1.00  0.00     0.166 HD
ATOM     68  HAI 5X1 A1001      -9.228   2.788 -30.310  1.00  0.00     0.114 H 
ENDBRANCH  51  58
BRANCH  47  69
HETATM   69  CAB 5X1 A1001      -6.728   6.927 -26.920  1.00 48.09    -0.068 C 
ATOM     70 3HAB 5X1 A1001      -7.817   6.801 -26.721  1.00  0.00     0.028 H 
ATOM     71 2HAB 5X1 A1001      -6.382   7.181 -25.891  1.00  0.00     0.028 H 
ATOM     72 1HAB 5X1 A1001      -6.548   7.776 -27.619  1.00  0.00     0.028 H 
ENDBRANCH  47  69
ENDBRANCH   2  39
TORSDOF 8
ENDMDL
MODEL 3
REMARK VINA RESULT:      -8.5      8.802     13.178
REMARK  8 active torsions:
REMARK  status: ('A' for Active; 'I' for Inactive)
REMARK    1  A    between atoms: CAA_1  and  CAY_51 
REMARK    2  A    between atoms: CAB_2  and  CBF_65 
REMARK    3  A    between atoms: CAC_6  and  NBG_67 
REMARK    4  A    between atoms: CAR_41  and  CAZ_52 
REMARK    5  A    between atoms: CAR_41  and  NBH_68 
REMARK       I    between atoms: CAX_50  and  NAW_57 
REMARK    6  A    between atoms: CAX_50  and  CBB_61 
REMARK    7  A    between atoms: CBA_60  and  NAW_57 
REMARK    8  A    between atoms: CBD_63  and  NBI_69 
ROOT
HETATM    1  CAX 5X1 A1001     -12.735   0.549 -19.273  1.00 40.69     0.256 C 
HETATM    2  NAW 5X1 A1001     -13.891   0.552 -20.216  1.00 39.78    -0.323 N 
ATOM      3  HAW 5X1 A1001     -14.672  -0.078 -20.031  1.00  0.00     0.169 HD
HETATM    4  OAD 5X1 A1001     -11.748   1.300 -19.461  1.00 43.55    -0.267 OA
ENDROOT
BRANCH   1   5
HETATM    5  CBB 5X1 A1001     -12.725  -0.367 -18.027  1.00 37.26     0.033 C 
HETATM    6  CAK 5X1 A1001     -12.479   0.179 -16.739  1.00 33.19    -0.053 C 
HETATM    7  CAY 5X1 A1001     -12.294  -0.699 -15.653  1.00 35.05     0.049 C 
ATOM      8  HAK 5X1 A1001     -12.433   1.272 -16.591  1.00  0.00     0.086 H 
HETATM    9  CAJ 5X1 A1001     -12.699  -2.056 -15.825  1.00 37.35    -0.060 C 
HETATM   10  CAZ 5X1 A1001     -13.564  -2.390 -16.897  1.00 37.22    -0.028 C 
ATOM     11  HAJ 5X1 A1001     -12.343  -2.837 -15.132  1.00  0.00     0.085 H 
HETATM   12  CAL 5X1 A1001     -13.488  -1.589 -18.047  1.00 38.14    -0.060 C 
ATOM     13  HAL 5X1 A1001     -14.013  -1.897 -18.967  1.00  0.00     0.086 H 
BRANCH   7  14
HETATM   14  CAA 5X1 A1001     -11.724  -0.197 -14.321  1.00 37.13     0.417 C 
HETATM   15  F03 5X1 A1001     -10.672   0.590 -14.503  1.00 35.48    -0.166 F 
HETATM   16  F02 5X1 A1001     -12.647   0.523 -13.651  1.00 36.52    -0.166 F 
HETATM   17  F01 5X1 A1001     -11.342  -1.260 -13.597  1.00 41.00    -0.166 F 
ENDBRANCH   7  14
BRANCH  10  18
HETATM   18  CAR 5X1 A1001     -14.178  -3.803 -16.968  1.00 33.44     0.137 C 
ATOM     19 2HAR 5X1 A1001     -14.771  -4.032 -16.052  1.00  0.00     0.087 H 
ATOM     20 1HAR 5X1 A1001     -14.996  -3.850 -17.725  1.00  0.00     0.087 H 
BRANCH  18  21
HETATM   21  NBH 5X1 A1001     -13.179  -4.820 -17.214  1.00 31.62     0.096 N 
HETATM   22  CAP 5X1 A1001     -13.289  -5.951 -16.376  1.00 31.23     0.138 C 
HETATM   23  CAN 5X1 A1001     -12.116  -6.906 -16.564  1.00 32.34     0.138 C 
ATOM     24 2HAP 5X1 A1001     -14.265  -6.471 -16.521  1.00  0.00     0.082 H 
ATOM     25 1HAP 5X1 A1001     -13.407  -5.656 -15.308  1.00  0.00     0.082 H 
HETATM   26  NBG 5X1 A1001     -12.084  -7.328 -17.922  1.00 34.87     0.087 N 
ATOM     27 2HAN 5X1 A1001     -12.145  -7.763 -15.852  1.00  0.00     0.082 H 
ATOM     28 1HAN 5X1 A1001     -11.148  -6.463 -16.233  1.00  0.00     0.082 H 
HETATM   29  CAO 5X1 A1001     -12.009  -6.190 -18.857  1.00 34.63     0.138 C 
HETATM   30  CAQ 5X1 A1001     -13.140  -5.203 -18.599  1.00 31.96     0.138 C 
ATOM     31 2HAO 5X1 A1001     -11.012  -5.693 -18.823  1.00  0.00     0.082 H 
ATOM     32 1HAO 5X1 A1001     -11.992  -6.528 -19.919  1.00  0.00     0.082 H 
ATOM     33 2HAQ 5X1 A1001     -13.072  -4.315 -19.270  1.00  0.00     0.082 H 
ATOM     34 1HAQ 5X1 A1001     -14.122  -5.601 -18.944  1.00  0.00     0.082 H 
BRANCH  26  35
HETATM   35  CAC 5X1 A1001     -11.005  -8.229 -18.155  1.00 33.60     0.095 C 
ATOM     36 3HAC 5X1 A1001     -10.293  -7.830 -18.913  1.00  0.00     0.071 H 
ATOM     37 2HAC 5X1 A1001     -10.314  -8.277 -17.280  1.00  0.00     0.071 H 
ATOM     38 1HAC 5X1 A1001     -11.381  -9.241 -18.437  1.00  0.00     0.071 H 
ENDBRANCH  26  35
ENDBRANCH  18  21
ENDBRANCH  10  18
ENDBRANCH   1   5
BRANCH   2  39
HETATM   39  CBA 5X1 A1001     -13.953   1.400 -21.372  1.00 41.50     0.032 A 
HETATM   40  CAE 5X1 A1001     -14.468   2.711 -21.253  1.00 45.24    -0.073 A 
HETATM   41  CAF 5X1 A1001     -14.530   3.592 -22.370  1.00 48.98    -0.026 A 
ATOM     42  HAE 5X1 A1001     -14.831   3.059 -20.272  1.00  0.00     0.080 H 
HETATM   43  CBE 5X1 A1001     -14.046   3.130 -23.745  1.00 48.86    -0.063 A 
ATOM     44 2HAF 5X1 A1001     -15.578   3.957 -22.472  1.00  0.00     0.045 H 
ATOM     45 1HAF 5X1 A1001     -13.990   4.531 -22.107  1.00  0.00     0.045 H 
HETATM   46  CBC 5X1 A1001     -13.546   1.893 -23.863  1.00 46.40    -0.035 A 
HETATM   47  CBF 5X1 A1001     -14.178   4.098 -24.893  1.00 48.00    -0.019 C 
HETATM   48  CAM 5X1 A1001     -13.506   0.970 -22.644  1.00 44.24    -0.050 A 
HETATM   49  CAS 5X1 A1001     -13.016   1.267 -25.208  1.00 44.80     0.019 C 
ATOM     50  HAM 5X1 A1001     -13.120  -0.056 -22.760  1.00  0.00     0.087 H 
HETATM   51  NBI 5X1 A1001     -13.006   2.323 -26.219  1.00 44.82    -0.374 N 
ATOM     52 2HAS 5X1 A1001     -12.026   0.769 -25.092  1.00  0.00     0.071 H 
ATOM     53 1HAS 5X1 A1001     -13.597   0.370 -25.526  1.00  0.00     0.071 H 
HETATM   54  CAT 5X1 A1001     -14.030   3.324 -26.174  1.00 46.06     0.002 C 
ATOM     55 2HAT 5X1 A1001     -15.009   2.865 -26.446  1.00  0.00     0.065 H 
ATOM     56 1HAT 5X1 A1001     -13.891   4.034 -27.022  1.00  0.00     0.065 H 
ATOM     57  HBF 5X1 A1001     -15.216   4.504 -24.868  1.00  0.00     0.049 H 
BRANCH  51  58
HETATM   58  CBD 5X1 A1001     -12.464   1.908 -27.516  1.00 45.56     0.061 A 
HETATM   59  CAH 5X1 A1001     -11.226   2.380 -28.016  1.00 43.92     0.005 A 
HETATM   60  NAU 5X1 A1001     -10.793   2.006 -29.274  1.00 45.64    -0.360 N 
ATOM     61  HAH 5X1 A1001     -10.604   3.048 -27.397  1.00  0.00     0.114 H 
HETATM   62  CAG 5X1 A1001     -11.538   1.192 -30.055  1.00 46.45     0.040 A 
ATOM     63  HAU 5X1 A1001      -9.897   2.351 -29.620  1.00  0.00     0.166 HD
HETATM   64  NAV 5X1 A1001     -12.749   0.734 -29.603  1.00 46.08    -0.360 N 
ATOM     65  HAG 5X1 A1001     -11.173   0.896 -31.052  1.00  0.00     0.140 H 
HETATM   66  CAI 5X1 A1001     -13.178   1.083 -28.399  1.00 47.22     0.005 A 
ATOM     67  HAV 5X1 A1001     -13.319   0.127 -30.193  1.00  0.00     0.166 HD
ATOM     68  HAI 5X1 A1001     -14.159   0.700 -28.070  1.00  0.00     0.114 H 
ENDBRANCH  51  58
BRANCH  47  69
HETATM   69  CAB 5X1 A1001     -13.250   5.245 -24.794  1.00 48.09    -0.068 C 
ATOM     70 3HAB 5X1 A1001     -12.199   4.921 -24.973  1.00  0.00     0.028 H 
ATOM     71 2HAB 5X1 A1001     -13.379   5.935 -25.660  1.00  0.00     0.028 H 
ATOM     72 1HAB 5X1 A1001     -13.337   5.799 -23.830  1.00  0.00     0.028 H 
ENDBRANCH  47  69
ENDBRANCH   2  39
TORSDOF 8
ENDMDL
MODEL 4
REMARK VINA RESULT:      -8.3      4.786     12.860
REMARK  8 active torsions:
REMARK  status: ('A' for Active; 'I' for Inactive)
REMARK    1  A    between atoms: CAA_1  and  CAY_51 
REMARK    2  A    between atoms: CAB_2  and  CBF_65 
REMARK    3  A    between atoms: CAC_6  and  NBG_67 
REMARK    4  A    between atoms: CAR_41  and  CAZ_52 
REMARK    5  A    between atoms: CAR_41  and  NBH_68 
REMARK       I    between atoms: CAX_50  and  NAW_57 
REMARK    6  A    between atoms: CAX_50  and  CBB_61 
REMARK    7  A    between atoms: CBA_60  and  NAW_57 
REMARK    8  A    between atoms: CBD_63  and  NBI_69 
ROOT
HETATM    1  CAX 5X1 A1001     -13.030   1.364 -26.356  1.00 40.69     0.256 C 
HETATM    2  NAW 5X1 A1001     -12.957   2.097 -25.058  1.00 39.78    -0.323 N 
ATOM      3  HAW 5X1 A1001     -12.238   2.812 -24.944  1.00  0.00     0.169 HD
HETATM    4  OAD 5X1 A1001     -13.893   0.470 -26.543  1.00 43.55    -0.267 OA
ENDROOT
BRANCH   1   5
HETATM    5  CBB 5X1 A1001     -12.059   1.690 -27.513  1.00 37.26     0.033 C 
HETATM    6  CAK 5X1 A1001     -12.302   1.182 -28.817  1.00 33.19    -0.053 C 
HETATM    7  CAY 5X1 A1001     -11.310   1.342 -29.805  1.00 35.05     0.049 C 
ATOM      8  HAK 5X1 A1001     -13.252   0.672 -29.053  1.00  0.00     0.086 H 
HETATM    9  CAJ 5X1 A1001     -10.275   2.291 -29.552  1.00 37.35    -0.060 C 
HETATM   10  CAZ 5X1 A1001     -10.456   3.259 -28.534  1.00 37.22    -0.028 C 
ATOM     11  HAJ 5X1 A1001      -9.343   2.270 -30.143  1.00  0.00     0.085 H 
HETATM   12  CAL 5X1 A1001     -11.277   2.899 -27.454  1.00 38.14    -0.060 C 
ATOM     13  HAL 5X1 A1001     -11.324   3.543 -26.560  1.00  0.00     0.086 H 
BRANCH   7  14
HETATM   14  CAA 5X1 A1001     -11.374   0.558 -31.120  1.00 37.13     0.417 C 
HETATM   15  F03 5X1 A1001     -12.023   1.230 -32.062  1.00 35.48    -0.166 F 
HETATM   16  F02 5X1 A1001     -10.132   0.317 -31.590  1.00 36.52    -0.166 F 
HETATM   17  F01 5X1 A1001     -12.022  -0.595 -30.894  1.00 41.00    -0.166 F 
ENDBRANCH   7  14
BRANCH  10  18
HETATM   18  CAR 5X1 A1001      -9.446   4.417 -28.395  1.00 33.44     0.137 C 
ATOM     19 2HAR 5X1 A1001      -9.663   5.231 -29.126  1.00  0.00     0.087 H 
ATOM     20 1HAR 5X1 A1001      -9.607   4.982 -27.447  1.00  0.00     0.087 H 
BRANCH  18  21
HETATM   21  NBH 5X1 A1001      -8.077   3.962 -28.508  1.00 31.62     0.096 N 
HETATM   22  CAP 5X1 A1001      -7.335   4.612 -29.518  1.00 31.23     0.138 C 
HETATM   23  CAN 5X1 A1001      -5.961   3.977 -29.702  1.00 32.34     0.138 C 
ATOM     24 2HAP 5X1 A1001      -7.255   5.707 -29.323  1.00  0.00     0.082 H 
ATOM     25 1HAP 5X1 A1001      -7.899   4.647 -30.479  1.00  0.00     0.082 H 
HETATM   26  NBG 5X1 A1001      -5.253   4.059 -28.471  1.00 34.87     0.087 N 
ATOM     27 2HAN 5X1 A1001      -5.395   4.426 -30.551  1.00  0.00     0.082 H 
ATOM     28 1HAN 5X1 A1001      -6.022   2.934 -30.091  1.00  0.00     0.082 H 
HETATM   29  CAO 5X1 A1001      -5.992   3.432 -27.360  1.00 34.63     0.138 C 
HETATM   30  CAQ 5X1 A1001      -7.393   4.018 -27.245  1.00 31.96     0.138 C 
ATOM     31 2HAO 5X1 A1001      -6.016   2.322 -27.455  1.00  0.00     0.082 H 
ATOM     32 1HAO 5X1 A1001      -5.434   3.507 -26.398  1.00  0.00     0.082 H 
ATOM     33 2HAQ 5X1 A1001      -7.981   3.525 -26.436  1.00  0.00     0.082 H 
ATOM     34 1HAQ 5X1 A1001      -7.375   5.054 -26.832  1.00  0.00     0.082 H 
BRANCH  26  35
HETATM   35  CAC 5X1 A1001      -3.955   3.483 -28.587  1.00 33.60     0.095 C 
ATOM     36 3HAC 5X1 A1001      -3.908   2.738 -29.415  1.00  0.00     0.071 H 
ATOM     37 2HAC 5X1 A1001      -3.212   4.218 -28.979  1.00  0.00     0.071 H 
ATOM     38 1HAC 5X1 A1001      -3.623   3.041 -27.618  1.00  0.00     0.071 H 
ENDBRANCH  26  35
ENDBRANCH  18  21
ENDBRANCH  10  18
ENDBRANCH   1   5
BRANCH   2  39
HETATM   39  CBA 5X1 A1001     -13.852   1.842 -23.966  1.00 41.50     0.032 A 
HETATM   40  CAE 5X1 A1001     -15.191   2.287 -24.038  1.00 45.24    -0.073 A 
HETATM   41  CAF 5X1 A1001     -16.117   2.039 -22.985  1.00 48.98    -0.026 A 
ATOM     42  HAE 5X1 A1001     -15.527   2.840 -24.931  1.00  0.00     0.080 H 
HETATM   43  CBE 5X1 A1001     -15.674   1.287 -21.729  1.00 48.86    -0.063 A 
ATOM     44 2HAF 5X1 A1001     -16.562   3.012 -22.672  1.00  0.00     0.045 H 
ATOM     45 1HAF 5X1 A1001     -17.003   1.514 -23.412  1.00  0.00     0.045 H 
HETATM   46  CBC 5X1 A1001     -14.409   0.853 -21.658  1.00 46.40    -0.035 A 
HETATM   47  CBF 5X1 A1001     -16.692   1.095 -20.634  1.00 48.00    -0.019 C 
HETATM   48  CAM 5X1 A1001     -13.439   1.148 -22.804  1.00 44.24    -0.050 A 
HETATM   49  CAS 5X1 A1001     -13.798   0.073 -20.433  1.00 44.80     0.019 C 
ATOM     50  HAM 5X1 A1001     -12.392   0.811 -22.722  1.00  0.00     0.087 H 
HETATM   51  NBI 5X1 A1001     -14.888  -0.232 -19.510  1.00 44.82    -0.374 N 
ATOM     52 2HAS 5X1 A1001     -13.224  -0.832 -20.740  1.00  0.00     0.071 H 
ATOM     53 1HAS 5X1 A1001     -12.959   0.622 -19.946  1.00  0.00     0.071 H 
HETATM   54  CAT 5X1 A1001     -15.959   0.710 -19.379  1.00 46.06     0.002 C 
ATOM     55 2HAT 5X1 A1001     -15.585   1.630 -18.871  1.00  0.00     0.065 H 
ATOM     56 1HAT 5X1 A1001     -16.690   0.339 -18.623  1.00  0.00     0.065 H 
ATOM     57  HBF 5X1 A1001     -17.173   2.084 -20.450  1.00  0.00     0.049 H 
BRANCH  51  58
HETATM   58  CBD 5X1 A1001     -14.485  -1.026 -18.345  1.00 45.56     0.061 A 
HETATM   59  CAH 5X1 A1001     -15.414  -1.537 -17.406  1.00 43.92     0.005 A 
HETATM   60  NAU 5X1 A1001     -14.973  -2.224 -16.291  1.00 45.64    -0.360 N 
ATOM     61  HAH 5X1 A1001     -16.494  -1.384 -17.566  1.00  0.00     0.114 H 
HETATM   62  CAG 5X1 A1001     -13.654  -2.420 -16.069  1.00 46.45     0.040 A 
ATOM     63  HAU 5X1 A1001     -15.653  -2.589 -15.625  1.00  0.00     0.166 HD
HETATM   64  NAV 5X1 A1001     -12.732  -1.922 -16.953  1.00 46.08    -0.360 N 
ATOM     65  HAG 5X1 A1001     -13.320  -2.979 -15.179  1.00  0.00     0.140 H 
HETATM   66  CAI 5X1 A1001     -13.137  -1.261 -18.026  1.00 47.22     0.005 A 
ATOM     67  HAV 5X1 A1001     -11.735  -2.060 -16.784  1.00  0.00     0.166 HD
ATOM     68  HAI 5X1 A1001     -12.368  -0.870 -18.713  1.00  0.00     0.114 H 
ENDBRANCH  51  58
BRANCH  47  69
HETATM   69  CAB 5X1 A1001     -17.764   0.143 -21.000  1.00 48.09    -0.068 C 
ATOM     70 3HAB 5X1 A1001     -18.632   0.238 -20.307  1.00  0.00     0.028 H 
ATOM     71 2HAB 5X1 A1001     -18.256   0.447 -21.953  1.00  0.00     0.028 H 
ATOM     72 1HAB 5X1 A1001     -17.413  -0.914 -21.054  1.00  0.00     0.028 H 
ENDBRANCH  47  69
ENDBRANCH   2  39
TORSDOF 8
ENDMDL
MODEL 5
REMARK VINA RESULT:      -8.3      4.962     11.904
REMARK  8 active torsions:
REMARK  status: ('A' for Active; 'I' for Inactive)
REMARK    1  A    between atoms: CAA_1  and  CAY_51 
REMARK    2  A    between atoms: CAB_2  and  CBF_65 
REMARK    3  A    between atoms: CAC_6  and  NBG_67 
REMARK    4  A    between atoms: CAR_41  and  CAZ_52 
REMARK    5  A    between atoms: CAR_41  and  NBH_68 
REMARK       I    between atoms: CAX_50  and  NAW_57 
REMARK    6  A    between atoms: CAX_50  and  CBB_61 
REMARK    7  A    between atoms: CBA_60  and  NAW_57 
REMARK    8  A    between atoms: CBD_63  and  NBI_69 
ROOT
HETATM    1  CAX 5X1 A1001      -5.807   7.918 -32.210  1.00 40.69     0.256 C 
HETATM    2  NAW 5X1 A1001      -5.208   7.051 -31.155  1.00 39.78    -0.323 N 
ATOM      3  HAW 5X1 A1001      -4.235   6.762 -31.257  1.00  0.00     0.169 HD
HETATM    4  OAD 5X1 A1001      -7.003   8.294 -32.133  1.00 43.55    -0.267 OA
ENDROOT
BRANCH   1   5
HETATM    5  CBB 5X1 A1001      -4.973   8.393 -33.422  1.00 37.26     0.033 C 
HETATM    6  CAK 5X1 A1001      -4.962   9.765 -33.790  1.00 33.19    -0.053 C 
HETATM    7  CAY 5X1 A1001      -4.344  10.139 -35.000  1.00 35.05     0.049 C 
ATOM      8  HAK 5X1 A1001      -5.429  10.525 -33.141  1.00  0.00     0.086 H 
HETATM    9  CAJ 5X1 A1001      -3.473   9.191 -35.616  1.00 37.35    -0.060 C 
HETATM   10  CAZ 5X1 A1001      -2.990   8.097 -34.856  1.00 37.22    -0.028 C 
ATOM     11  HAJ 5X1 A1001      -3.178   9.309 -36.673  1.00  0.00     0.085 H 
HETATM   12  CAL 5X1 A1001      -3.812   7.636 -33.816  1.00 38.14    -0.060 C 
ATOM     13  HAL 5X1 A1001      -3.568   6.692 -33.299  1.00  0.00     0.086 H 
BRANCH   7  14
HETATM   14  CAA 5X1 A1001      -4.566  11.531 -35.602  1.00 37.13     0.417 C 
HETATM   15  F03 5X1 A1001      -3.732  11.771 -36.605  1.00 35.48    -0.166 F 
HETATM   16  F02 5X1 A1001      -5.819  11.642 -36.092  1.00 36.52    -0.166 F 
HETATM   17  F01 5X1 A1001      -4.355  12.445 -34.642  1.00 41.00    -0.166 F 
ENDBRANCH   7  14
BRANCH  10  18
HETATM   18  CAR 5X1 A1001      -1.886   7.192 -35.439  1.00 33.44     0.137 C 
ATOM     19 2HAR 5X1 A1001      -1.099   7.795 -35.950  1.00  0.00     0.087 H 
ATOM     20 1HAR 5X1 A1001      -1.266   6.740 -34.630  1.00  0.00     0.087 H 
BRANCH  18  21
HETATM   21  NBH 5X1 A1001      -2.422   6.177 -36.318  1.00 31.62     0.096 N 
HETATM   22  CAP 5X1 A1001      -2.739   6.643 -37.612  1.00 31.23     0.138 C 
HETATM   23  CAN 5X1 A1001      -3.453   5.576 -38.435  1.00 32.34     0.138 C 
ATOM     24 2HAP 5X1 A1001      -1.835   7.027 -38.139  1.00  0.00     0.082 H 
ATOM     25 1HAP 5X1 A1001      -3.329   7.588 -37.571  1.00  0.00     0.082 H 
HETATM   26  NBG 5X1 A1001      -2.605   4.439 -38.540  1.00 34.87     0.087 N 
ATOM     27 2HAN 5X1 A1001      -3.783   5.955 -39.430  1.00  0.00     0.082 H 
ATOM     28 1HAN 5X1 A1001      -4.458   5.323 -38.025  1.00  0.00     0.082 H 
HETATM   29  CAO 5X1 A1001      -2.201   3.921 -37.219  1.00 34.63     0.138 C 
HETATM   30  CAQ 5X1 A1001      -1.568   5.022 -36.379  1.00 31.96     0.138 C 
ATOM     31 2HAO 5X1 A1001      -3.053   3.435 -36.688  1.00  0.00     0.082 H 
ATOM     32 1HAO 5X1 A1001      -1.532   3.035 -37.310  1.00  0.00     0.082 H 
ATOM     33 2HAQ 5X1 A1001      -1.295   4.657 -35.361  1.00  0.00     0.082 H 
ATOM     34 1HAQ 5X1 A1001      -0.547   5.283 -36.743  1.00  0.00     0.082 H 
BRANCH  26  35
HETATM   35  CAC 5X1 A1001      -3.223   3.408 -39.306  1.00 33.60     0.095 C 
ATOM     36 3HAC 5X1 A1001      -3.748   3.818 -40.199  1.00  0.00     0.071 H 
ATOM     37 2HAC 5X1 A1001      -2.467   2.776 -39.829  1.00  0.00     0.071 H 
ATOM     38 1HAC 5X1 A1001      -3.906   2.792 -38.674  1.00  0.00     0.071 H 
ENDBRANCH  26  35
ENDBRANCH  18  21
ENDBRANCH  10  18
ENDBRANCH   1   5
BRANCH   2  39
HETATM   39  CBA 5X1 A1001      -5.939   6.605 -30.003  1.00 41.50     0.032 A 
HETATM   40  CAE 5X1 A1001      -5.680   7.186 -28.741  1.00 45.24    -0.073 A 
HETATM   41  CAF 5X1 A1001      -6.395   6.787 -27.575  1.00 48.98    -0.026 A 
ATOM     42  HAE 5X1 A1001      -4.906   7.967 -28.656  1.00  0.00     0.080 H 
HETATM   43  CBE 5X1 A1001      -7.463   5.696 -27.662  1.00 48.86    -0.063 A 
ATOM     44 2HAF 5X1 A1001      -5.656   6.493 -26.794  1.00  0.00     0.045 H 
ATOM     45 1HAF 5X1 A1001      -6.857   7.693 -27.119  1.00  0.00     0.045 H 
HETATM   46  CBC 5X1 A1001      -7.721   5.148 -28.857  1.00 46.40    -0.035 A 
HETATM   47  CBF 5X1 A1001      -8.153   5.291 -26.384  1.00 48.00    -0.019 C 
HETATM   48  CAM 5X1 A1001      -6.925   5.594 -30.084  1.00 44.24    -0.050 A 
HETATM   49  CAS 5X1 A1001      -8.782   4.012 -29.109  1.00 44.80     0.019 C 
ATOM     50  HAM 5X1 A1001      -7.126   5.116 -31.057  1.00  0.00     0.087 H 
HETATM   51  NBI 5X1 A1001      -9.528   3.813 -27.869  1.00 44.82    -0.374 N 
ATOM     52 2HAS 5X1 A1001      -9.442   4.223 -29.983  1.00  0.00     0.071 H 
ATOM     53 1HAS 5X1 A1001      -8.324   3.071 -29.494  1.00  0.00     0.071 H 
HETATM   54  CAT 5X1 A1001      -8.840   3.975 -26.622  1.00 46.06     0.002 C 
ATOM     55 2HAT 5X1 A1001      -8.107   3.145 -26.492  1.00  0.00     0.065 H 
ATOM     56 1HAT 5X1 A1001      -9.542   3.766 -25.782  1.00  0.00     0.065 H 
ATOM     57  HBF 5X1 A1001      -7.361   5.119 -25.618  1.00  0.00     0.049 H 
BRANCH  51  58
HETATM   58  CBD 5X1 A1001     -10.610   2.829 -27.969  1.00 45.56     0.061 A 
HETATM   59  CAH 5X1 A1001     -10.941   2.174 -29.180  1.00 43.92     0.005 A 
HETATM   60  NAU 5X1 A1001     -12.013   1.303 -29.231  1.00 45.64    -0.360 N 
ATOM     61  HAH 5X1 A1001     -10.341   2.361 -30.086  1.00  0.00     0.114 H 
HETATM   62  CAG 5X1 A1001     -12.768   1.060 -28.137  1.00 46.45     0.040 A 
ATOM     63  HAU 5X1 A1001     -12.238   0.835 -30.110  1.00  0.00     0.166 HD
HETATM   64  NAV 5X1 A1001     -12.481   1.694 -26.955  1.00 46.08    -0.360 N 
ATOM     65  HAG 5X1 A1001     -13.614   0.355 -28.194  1.00  0.00     0.140 H 
HETATM   66  CAI 5X1 A1001     -11.457   2.531 -26.889  1.00 47.22     0.005 A 
ATOM     67  HAV 5X1 A1001     -13.054   1.520 -26.129  1.00  0.00     0.166 HD
ATOM     68  HAI 5X1 A1001     -11.257   3.027 -25.924  1.00  0.00     0.114 H 
ENDBRANCH  51  58
BRANCH  47  69
HETATM   69  CAB 5X1 A1001      -9.058   6.336 -25.858  1.00 48.09    -0.068 C 
ATOM     70 3HAB 5X1 A1001      -9.656   5.947 -25.000  1.00  0.00     0.028 H 
ATOM     71 2HAB 5X1 A1001      -8.481   7.133 -25.333  1.00  0.00     0.028 H 
ATOM     72 1HAB 5X1 A1001      -9.722   6.775 -26.637  1.00  0.00     0.028 H 
ENDBRANCH  47  69
ENDBRANCH   2  39
TORSDOF 8
ENDMDL
