REMARK VINA RESULT:     -10.5      0.000      0.000
REMARK  7 active torsions:
REMARK  status: ('A' for Active; 'I' for Inactive)
REMARK    1  A    between atoms: C1_1  and  C2_2 
REMARK    2  A    between atoms: C15_10  and  C2_2 
REMARK    3  A    between atoms: C2_2  and  N4_3 
REMARK    4  A    between atoms: C5_4  and  N4_3 
REMARK    5  A    between atoms: C18_25  and  C19_12 
REMARK    6  A    between atoms: C22_13  and  C24_14 
REMARK       I    between atoms: C22_13  and  N21_27 
REMARK    7  A    between atoms: C20_26  and  N21_27 
REMARK viewdock state: V
HETATM    1  C15 4VE A1008      -6.645   8.808 -34.628  0.93 33.54    -0.034 A 
HETATM    2  C16 4VE A1008      -5.521   9.501 -34.198  0.93 33.32    -0.074 A 
HETATM    3  C17 4VE A1008      -4.264   9.170 -34.681  0.93 32.81    -0.074 A 
HETATM    4  C18 4VE A1008      -4.100   8.140 -35.606  0.93 32.85    -0.035 A 
HETATM    5  C20 4VE A1008      -5.230   7.441 -36.038  0.93 30.45     0.041 A 
HETATM    6  C33 4VE A1008      -6.478   7.784 -35.546  0.93 29.62    -0.049 A 
HETATM    7  H41 4VE A1008      -5.611  10.199 -33.575  0.93 33.23     0.084 H 
HETATM    8  H42 4VE A1008      -3.510   9.650 -34.381  0.93 32.82     0.084 H 
HETATM    9  H52 4VE A1008      -7.236   7.308 -35.842  0.93 30.98     0.087 H 
HETATM   10  C2  4VE A1008      -8.051   9.114 -34.141  0.93 34.59     0.035 C 
HETATM   11  H3  4VE A1008      -8.293  10.005 -34.489  0.93 34.29     0.079 H 
HETATM   12  C1  4VE A1008      -8.105   9.173 -32.621  0.93 33.83    -0.053 C 
HETATM   13  H35 4VE A1008      -7.381   8.636 -32.249  0.93 31.92     0.030 H 
HETATM   14  H36 4VE A1008      -8.008  10.100 -32.327  0.93 33.31     0.030 H 
HETATM   15  H34 4VE A1008      -8.960   8.821 -32.312  0.93 32.17     0.030 H 
HETATM   16  N4  4VE A1008      -9.074   8.172 -34.593  0.93 34.85    -0.346 N 
HETATM   17  H37 4VE A1008      -8.878   7.328 -34.655  0.93 34.53     0.163 HD
HETATM   18  C5  4VE A1008     -10.382   8.526 -34.742  0.93 33.92     0.248 A 
HETATM   19  O14 4VE A1008     -11.113   8.813 -33.620  0.93 35.99    -0.276 OA
HETATM   20  C13 4VE A1008     -12.341   9.118 -34.117  0.93 34.99     0.108 A 
HETATM   21  C12 4VE A1008     -13.466   9.486 -33.394  0.93 35.37    -0.045 A 
HETATM   22  C7  4VE A1008     -12.343   9.018 -35.476  0.93 32.89     0.098 A 
HETATM   23  C11 4VE A1008     -14.635   9.760 -34.093  0.93 35.49    -0.043 A 
HETATM   24  H40 4VE A1008     -13.436   9.546 -32.454  0.93 34.91     0.088 H 
HETATM   25  C9  4VE A1008     -14.641   9.660 -35.465  0.93 30.88     0.118 A 
HETATM   26  H39 4VE A1008     -15.418  10.011 -33.632  0.93 32.48     0.088 H 
HETATM   27  C8  4VE A1008     -13.532   9.297 -36.192  0.93 31.03    -0.015 A 
HETATM   28  F10 4VE A1008     -15.795   9.932 -36.134  0.93 36.95    -0.206 F 
HETATM   29  H38 4VE A1008     -13.561   9.235 -37.133  0.93 31.26     0.091 H 
HETATM   30  N6  4VE A1008     -11.078   8.636 -35.864  0.93 34.26    -0.206 NA
HETATM   31  N21 4VE A1008      -5.131   6.386 -36.973  0.93 32.87    -0.321 N 
HETATM   32  C22 4VE A1008      -5.019   6.566 -38.316  0.93 28.85     0.274 C 
HETATM   33  O23 4VE A1008      -4.829   7.680 -38.805  0.93 28.72    -0.266 OA
HETATM   34  H46 4VE A1008      -5.137   5.575 -36.660  0.93 29.64     0.169 HD
HETATM   35  C24 4VE A1008      -5.133   5.369 -39.173  0.93 31.01     0.126 A 
HETATM   36  C25 4VE A1008      -6.230   4.829 -39.785  0.93 30.23     0.036 A 
HETATM   37  H47 4VE A1008      -7.105   5.170 -39.736  0.93 30.00     0.118 H 
HETATM   38  N26 4VE A1008      -5.884   3.701 -40.496  0.93 34.51    -0.240 NA
HETATM   39  C27 4VE A1008      -4.571   3.540 -40.325  0.93 31.96     0.134 A 
HETATM   40  N32 4VE A1008      -4.057   4.546 -39.514  0.93 29.99    -0.301 N 
HETATM   41  C28 4VE A1008      -3.679   2.566 -40.812  0.93 31.97    -0.038 A 
HETATM   42  C31 4VE A1008      -2.715   4.588 -39.196  0.93 32.55    -0.013 A 
HETATM   43  C30 4VE A1008      -1.860   3.636 -39.675  0.93 31.44    -0.067 A 
HETATM   44  H51 4VE A1008      -2.393   5.279 -38.646  0.93 31.50     0.112 H 
HETATM   45  C29 4VE A1008      -2.332   2.624 -40.482  0.93 32.38    -0.078 A 
HETATM   46  H50 4VE A1008      -0.945   3.671 -39.453  0.93 31.83     0.085 H 
HETATM   47  H49 4VE A1008      -1.740   1.969 -40.810  0.93 32.87     0.083 H 
HETATM   48  H48 4VE A1008      -3.995   1.874 -41.362  0.93 31.20     0.089 H 
HETATM   49  C19 4VE A1008      -2.719   7.811 -36.107  0.93 32.45    -0.049 C 
HETATM   50  H44 4VE A1008      -2.771   7.080 -36.753  0.93 32.28     0.033 H 
HETATM   51  H43 4VE A1008      -2.156   7.542 -35.359  0.93 31.24     0.033 H 
HETATM   52  H45 4VE A1008      -2.330   8.598 -36.538  0.93 32.31     0.033 H 
ENDMDL
REMARK VINA RESULT:      -9.9      1.709      2.227
REMARK  7 active torsions:
REMARK  status: ('A' for Active; 'I' for Inactive)
REMARK    1  A    between atoms: C1_1  and  C2_2 
REMARK    2  A    between atoms: C15_10  and  C2_2 
REMARK    3  A    between atoms: C2_2  and  N4_3 
REMARK    4  A    between atoms: C5_4  and  N4_3 
REMARK    5  A    between atoms: C18_25  and  C19_12 
REMARK    6  A    between atoms: C22_13  and  C24_14 
REMARK       I    between atoms: C22_13  and  N21_27 
REMARK    7  A    between atoms: C20_26  and  N21_27 
REMARK viewdock state: V
HETATM    1  C15 4VE A1008      -6.963   8.853 -33.527  0.93 33.54    -0.034 A 
HETATM    2  C16 4VE A1008      -6.206   9.731 -32.762  0.93 33.32    -0.074 A 
HETATM    3  C17 4VE A1008      -4.834   9.819 -32.945  0.93 32.81    -0.074 A 
HETATM    4  C18 4VE A1008      -4.186   9.033 -33.896  0.93 32.85    -0.035 A 
HETATM    5  C20 4VE A1008      -4.946   8.148 -34.664  0.93 30.45     0.041 A 
HETATM    6  C33 4VE A1008      -6.315   8.073 -34.470  0.93 29.62    -0.049 A 
HETATM    7  H41 4VE A1008      -6.625  10.270 -32.115  0.93 33.23     0.084 H 
HETATM    8  H42 4VE A1008      -4.333  10.421 -32.418  0.93 32.82     0.084 H 
HETATM    9  H52 4VE A1008      -6.821   7.474 -34.993  0.93 30.98     0.087 H 
HETATM   10  C2  4VE A1008      -8.467   8.703 -33.381  0.93 34.59     0.035 C 
HETATM   11  H3  4VE A1008      -8.629   8.141 -32.586  0.93 34.29     0.079 H 
HETATM   12  C1  4VE A1008      -9.068   7.994 -34.587  0.93 33.83    -0.053 C 
HETATM   13  H35 4VE A1008      -9.981   7.721 -34.381  0.93 31.92     0.030 H 
HETATM   14  H36 4VE A1008      -9.073   8.601 -35.352  0.93 33.31     0.030 H 
HETATM   15  H34 4VE A1008      -8.535   7.206 -34.800  0.93 32.17     0.030 H 
HETATM   16  N4  4VE A1008      -9.192   9.958 -33.188  0.93 34.85    -0.346 N 
HETATM   17  H37 4VE A1008      -8.781  10.639 -32.838  0.93 34.53     0.163 HD
HETATM   18  C5  4VE A1008     -10.435  10.174 -33.704  0.93 33.92     0.248 A 
HETATM   19  O14 4VE A1008     -11.474   9.407 -33.247  0.93 35.99    -0.276 OA
HETATM   20  C13 4VE A1008     -12.539   9.872 -33.952  0.93 34.99     0.108 A 
HETATM   21  C12 4VE A1008     -13.851   9.431 -33.869  0.93 35.37    -0.045 A 
HETATM   22  C7  4VE A1008     -12.153  10.872 -34.793  0.93 32.89     0.098 A 
HETATM   23  C11 4VE A1008     -14.801  10.040 -34.680  0.93 35.49    -0.043 A 
HETATM   24  H40 4VE A1008     -14.090   8.736 -33.278  0.93 34.91     0.088 H 
HETATM   25  C9  4VE A1008     -14.415  11.050 -35.531  0.93 30.88     0.118 A 
HETATM   26  H39 4VE A1008     -15.702   9.763 -34.650  0.93 32.48     0.088 H 
HETATM   27  C8  4VE A1008     -13.118  11.495 -35.622  0.93 31.03    -0.015 A 
HETATM   28  F10 4VE A1008     -15.359  11.635 -36.319  0.93 36.95    -0.206 F 
HETATM   29  H38 4VE A1008     -12.878  12.190 -36.213  0.93 31.26     0.091 H 
HETATM   30  N6  4VE A1008     -10.799  11.055 -34.623  0.93 34.26    -0.206 NA
HETATM   31  N21 4VE A1008      -4.350   7.324 -35.645  0.93 32.87    -0.321 N 
HETATM   32  C22 4VE A1008      -4.188   7.681 -36.946  0.93 28.85     0.274 C 
HETATM   33  O23 4VE A1008      -4.407   8.829 -37.333  0.93 28.72    -0.266 OA
HETATM   34  H46 4VE A1008      -4.065   6.543 -35.389  0.93 29.64     0.169 HD
HETATM   35  C24 4VE A1008      -3.737   6.636 -37.886  0.93 31.01     0.126 A 
HETATM   36  C25 4VE A1008      -4.467   5.806 -38.693  0.93 30.23     0.036 A 
HETATM   37  H47 4VE A1008      -5.405   5.793 -38.755  0.93 30.00     0.118 H 
HETATM   38  N26 4VE A1008      -3.637   4.977 -39.415  0.93 34.51    -0.240 NA
HETATM   39  C27 4VE A1008      -2.392   5.290 -39.057  0.93 31.96     0.134 A 
HETATM   40  N32 4VE A1008      -2.397   6.312 -38.113  0.93 29.99    -0.301 N 
HETATM   41  C28 4VE A1008      -1.145   4.777 -39.464  0.93 31.97    -0.038 A 
HETATM   42  C31 4VE A1008      -1.219   6.807 -37.592  0.93 32.55    -0.013 A 
HETATM   43  C30 4VE A1008      -0.017   6.300 -37.996  0.93 31.44    -0.067 A 
HETATM   44  H51 4VE A1008      -1.251   7.498 -36.956  0.93 31.50     0.112 H 
HETATM   45  C29 4VE A1008       0.030   5.287 -38.929  0.93 32.38    -0.078 A 
HETATM   46  H50 4VE A1008       0.784   6.643 -37.636  0.93 31.83     0.085 H 
HETATM   47  H49 4VE A1008       0.860   4.939 -39.206  0.93 32.87     0.083 H 
HETATM   48  H48 4VE A1008      -1.108   4.088 -40.100  0.93 31.20     0.089 H 
HETATM   49  C19 4VE A1008      -2.695   9.157 -34.064  0.93 32.45    -0.049 C 
HETATM   50  H44 4VE A1008      -2.372   9.924 -33.551  0.93 32.28     0.033 H 
HETATM   51  H43 4VE A1008      -2.482   9.285 -35.005  0.93 31.24     0.033 H 
HETATM   52  H45 4VE A1008      -2.259   8.344 -33.740  0.93 32.31     0.033 H 
ENDMDL
REMARK VINA RESULT:      -8.6      4.999      9.701
REMARK  7 active torsions:
REMARK  status: ('A' for Active; 'I' for Inactive)
REMARK    1  A    between atoms: C1_1  and  C2_2 
REMARK    2  A    between atoms: C15_10  and  C2_2 
REMARK    3  A    between atoms: C2_2  and  N4_3 
REMARK    4  A    between atoms: C5_4  and  N4_3 
REMARK    5  A    between atoms: C18_25  and  C19_12 
REMARK    6  A    between atoms: C22_13  and  C24_14 
REMARK       I    between atoms: C22_13  and  N21_27 
REMARK    7  A    between atoms: C20_26  and  N21_27 
REMARK viewdock state: V
HETATM    1  C15 4VE A1008      -4.548   7.891 -35.376  0.93 33.54    -0.034 A 
HETATM    2  C16 4VE A1008      -5.185   9.066 -35.751  0.93 33.32    -0.074 A 
HETATM    3  C17 4VE A1008      -6.270   9.539 -35.028  0.93 32.81    -0.074 A 
HETATM    4  C18 4VE A1008      -6.744   8.849 -33.913  0.93 32.85    -0.035 A 
HETATM    5  C20 4VE A1008      -6.104   7.666 -33.537  0.93 30.45     0.041 A 
HETATM    6  C33 4VE A1008      -5.022   7.208 -34.269  0.93 29.62    -0.049 A 
HETATM    7  H41 4VE A1008      -4.880   9.546 -36.500  0.93 33.23     0.084 H 
HETATM    8  H42 4VE A1008      -6.693  10.340 -35.294  0.93 32.82     0.084 H 
HETATM    9  H52 4VE A1008      -4.596   6.409 -34.008  0.93 30.98     0.087 H 
HETATM   10  C2  4VE A1008      -3.357   7.314 -36.121  0.93 34.59     0.035 C 
HETATM   11  H3  4VE A1008      -3.239   6.385 -35.808  0.93 34.29     0.079 H 
HETATM   12  C1  4VE A1008      -2.083   8.083 -35.799  0.93 33.83    -0.053 C 
HETATM   13  H35 4VE A1008      -2.232   9.035 -35.949  0.93 31.92     0.030 H 
HETATM   14  H36 4VE A1008      -1.839   7.934 -34.865  0.93 33.31     0.030 H 
HETATM   15  H34 4VE A1008      -1.361   7.774 -36.377  0.93 32.17     0.030 H 
HETATM   16  N4  4VE A1008      -3.503   7.274 -37.575  0.93 34.85    -0.346 N 
HETATM   17  H37 4VE A1008      -3.580   8.018 -38.017  0.93 34.53     0.163 HD
HETATM   18  C5  4VE A1008      -3.339   6.130 -38.298  0.93 33.92     0.248 A 
HETATM   19  O14 4VE A1008      -4.425   5.606 -38.948  0.93 35.99    -0.276 OA
HETATM   20  C13 4VE A1008      -3.921   4.498 -39.554  0.93 34.99     0.108 A 
HETATM   21  C12 4VE A1008      -4.611   3.596 -40.349  0.93 35.37    -0.045 A 
HETATM   22  C7  4VE A1008      -2.594   4.366 -39.277  0.93 32.89     0.098 A 
HETATM   23  C11 4VE A1008      -3.912   2.520 -40.880  0.93 35.49    -0.043 A 
HETATM   24  H40 4VE A1008      -5.531   3.712 -40.524  0.93 34.91     0.088 H 
HETATM   25  C9  4VE A1008      -2.571   2.383 -40.602  0.93 30.88     0.118 A 
HETATM   26  H39 4VE A1008      -4.352   1.887 -41.424  0.93 32.48     0.088 H 
HETATM   27  C8  4VE A1008      -1.877   3.270 -39.815  0.93 31.03    -0.015 A 
HETATM   28  F10 4VE A1008      -1.902   1.321 -41.131  0.93 36.95    -0.206 F 
HETATM   29  H38 4VE A1008      -0.958   3.154 -39.640  0.93 31.26     0.091 H 
HETATM   30  N6  4VE A1008      -2.233   5.421 -38.469  0.93 34.26    -0.206 NA
HETATM   31  N21 4VE A1008      -6.536   6.920 -32.417  0.93 32.87    -0.321 N 
HETATM   32  C22 4VE A1008      -6.010   7.043 -31.170  0.93 28.85     0.274 C 
HETATM   33  O23 4VE A1008      -5.219   7.944 -30.888  0.93 28.72    -0.266 OA
HETATM   34  H46 4VE A1008      -7.183   6.353 -32.542  0.93 29.64     0.169 HD
HETATM   35  C24 4VE A1008      -6.425   6.053 -30.156  0.93 31.01     0.126 A 
HETATM   36  C25 4VE A1008      -7.649   5.844 -29.582  0.93 30.23     0.036 A 
HETATM   37  H47 4VE A1008      -8.429   6.334 -29.769  0.93 30.00     0.118 H 
HETATM   38  N26 4VE A1008      -7.591   4.806 -28.678  0.93 34.51    -0.240 NA
HETATM   39  C27 4VE A1008      -6.331   4.370 -28.691  0.93 31.96     0.134 A 
HETATM   40  N32 4VE A1008      -5.567   5.107 -29.589  0.93 29.99    -0.301 N 
HETATM   41  C28 4VE A1008      -5.693   3.337 -27.976  0.93 31.97    -0.038 A 
HETATM   42  C31 4VE A1008      -4.227   4.837 -29.774  0.93 32.55    -0.013 A 
HETATM   43  C30 4VE A1008      -3.621   3.831 -29.074  0.93 31.44    -0.067 A 
HETATM   44  H51 4VE A1008      -3.733   5.350 -30.388  0.93 31.50     0.112 H 
HETATM   45  C29 4VE A1008      -4.344   3.079 -28.176  0.93 32.38    -0.078 A 
HETATM   46  H50 4VE A1008      -2.705   3.653 -29.206  0.93 31.83     0.085 H 
HETATM   47  H49 4VE A1008      -3.924   2.387 -27.694  0.93 32.87     0.083 H 
HETATM   48  H48 4VE A1008      -6.182   2.821 -27.363  0.93 31.20     0.089 H 
HETATM   49  C19 4VE A1008      -7.924   9.395 -33.155  0.93 32.45    -0.049 C 
HETATM   50  H44 4VE A1008      -8.325  10.130 -33.659  0.93 32.28     0.033 H 
HETATM   51  H43 4VE A1008      -7.632   9.721 -32.285  0.93 31.24     0.033 H 
HETATM   52  H45 4VE A1008      -8.589   8.689 -33.029  0.93 32.31     0.033 H 
ENDMDL
REMARK VINA RESULT:      -8.3     19.974     21.456
REMARK  7 active torsions:
REMARK  status: ('A' for Active; 'I' for Inactive)
REMARK    1  A    between atoms: C1_1  and  C2_2 
REMARK    2  A    between atoms: C15_10  and  C2_2 
REMARK    3  A    between atoms: C2_2  and  N4_3 
REMARK    4  A    between atoms: C5_4  and  N4_3 
REMARK    5  A    between atoms: C18_25  and  C19_12 
REMARK    6  A    between atoms: C22_13  and  C24_14 
REMARK       I    between atoms: C22_13  and  N21_27 
REMARK    7  A    between atoms: C20_26  and  N21_27 
REMARK viewdock state: V
HETATM    1  C15 4VE A1008     -10.130   1.470 -55.758  0.93 33.54    -0.034 A 
HETATM    2  C16 4VE A1008     -11.129   2.434 -55.796  0.93 33.32    -0.074 A 
HETATM    3  C17 4VE A1008     -12.397   2.152 -55.312  0.93 32.81    -0.074 A 
HETATM    4  C18 4VE A1008     -12.697   0.900 -54.776  0.93 32.85    -0.035 A 
HETATM    5  C20 4VE A1008     -11.693  -0.071 -54.738  0.93 30.45     0.041 A 
HETATM    6  C33 4VE A1008     -10.432   0.227 -55.226  0.93 29.62    -0.049 A 
HETATM    7  H41 4VE A1008     -10.945   3.284 -56.154  0.93 33.23     0.084 H 
HETATM    8  H42 4VE A1008     -13.065   2.816 -55.344  0.93 32.82     0.084 H 
HETATM    9  H52 4VE A1008      -9.760  -0.433 -55.196  0.93 30.98     0.087 H 
HETATM   10  C2  4VE A1008      -8.720   1.708 -56.271  0.93 34.59     0.035 C 
HETATM   11  H3  4VE A1008      -8.800   2.142 -57.153  0.93 34.29     0.079 H 
HETATM   12  C1  4VE A1008      -7.975   0.393 -56.459  0.93 33.83    -0.053 C 
HETATM   13  H35 4VE A1008      -8.246  -0.236 -55.765  0.93 31.92     0.030 H 
HETATM   14  H36 4VE A1008      -8.187   0.022 -57.338  0.93 33.31     0.030 H 
HETATM   15  H34 4VE A1008      -7.015   0.551 -56.395  0.93 32.17     0.030 H 
HETATM   16  N4  4VE A1008      -7.899   2.574 -55.426  0.93 34.85    -0.346 N 
HETATM   17  H37 4VE A1008      -7.505   2.239 -54.728  0.93 34.53     0.163 HD
HETATM   18  C5  4VE A1008      -7.566   3.846 -55.785  0.93 33.92     0.248 A 
HETATM   19  O14 4VE A1008      -8.538   4.811 -55.744  0.93 35.99    -0.276 OA
HETATM   20  C13 4VE A1008      -7.883   5.931 -56.152  0.93 34.99     0.108 A 
HETATM   21  C12 4VE A1008      -8.414   7.204 -56.290  0.93 35.37    -0.045 A 
HETATM   22  C7  4VE A1008      -6.579   5.647 -56.425  0.93 32.89     0.098 A 
HETATM   23  C11 4VE A1008      -7.574   8.223 -56.723  0.93 35.49    -0.043 A 
HETATM   24  H40 4VE A1008      -9.321   7.372 -56.095  0.93 34.91     0.088 H 
HETATM   25  C9  4VE A1008      -6.256   7.939 -57.000  0.93 30.88     0.118 A 
HETATM   26  H39 4VE A1008      -7.904   9.100 -56.830  0.93 32.48     0.088 H 
HETATM   27  C8  4VE A1008      -5.719   6.682 -56.867  0.93 31.03    -0.015 A 
HETATM   28  F10 4VE A1008      -5.448   8.950 -57.424  0.93 36.95    -0.206 F 
HETATM   29  H38 4VE A1008      -4.812   6.513 -57.062  0.93 31.26     0.091 H 
HETATM   30  N6  4VE A1008      -6.389   4.304 -56.184  0.93 34.26    -0.206 NA
HETATM   31  N21 4VE A1008     -11.934  -1.359 -54.209  0.93 32.87    -0.321 N 
HETATM   32  C22 4VE A1008     -12.510  -2.374 -54.905  0.93 28.85     0.274 C 
HETATM   33  O23 4VE A1008     -12.717  -2.291 -56.116  0.93 28.72    -0.266 OA
HETATM   34  H46 4VE A1008     -11.689  -1.503 -53.387  0.93 29.64     0.169 HD
HETATM   35  C24 4VE A1008     -12.879  -3.590 -54.153  0.93 31.01     0.126 A 
HETATM   36  C25 4VE A1008     -12.275  -4.817 -54.117  0.93 30.23     0.036 A 
HETATM   37  H47 4VE A1008     -11.503  -5.059 -54.595  0.93 30.00     0.118 H 
HETATM   38  N26 4VE A1008     -12.956  -5.669 -53.275  0.93 34.51    -0.240 NA
HETATM   39  C27 4VE A1008     -13.983  -4.971 -52.789  0.93 31.96     0.134 A 
HETATM   40  N32 4VE A1008     -13.982  -3.678 -53.300  0.93 29.99    -0.301 N 
HETATM   41  C28 4VE A1008     -15.008  -5.323 -51.889  0.93 31.97    -0.038 A 
HETATM   42  C31 4VE A1008     -14.953  -2.768 -52.938  0.93 32.55    -0.013 A 
HETATM   43  C30 4VE A1008     -15.942  -3.122 -52.064  0.93 31.44    -0.067 A 
HETATM   44  H51 4VE A1008     -14.929  -1.900 -53.297  0.93 31.50     0.112 H 
HETATM   45  C29 4VE A1008     -15.977  -4.394 -51.536  0.93 32.38    -0.078 A 
HETATM   46  H50 4VE A1008     -16.603  -2.494 -51.821  0.93 31.83     0.085 H 
HETATM   47  H49 4VE A1008     -16.661  -4.635 -50.935  0.93 32.87     0.083 H 
HETATM   48  H48 4VE A1008     -15.037  -6.188 -51.527  0.93 31.20     0.089 H 
HETATM   49  C19 4VE A1008     -14.086   0.632 -54.260  0.93 32.45    -0.049 C 
HETATM   50  H44 4VE A1008     -14.704   0.551 -55.013  0.93 32.28     0.033 H 
HETATM   51  H43 4VE A1008     -14.369   1.368 -53.688  0.93 31.24     0.033 H 
HETATM   52  H45 4VE A1008     -14.091  -0.199 -53.746  0.93 32.31     0.033 H 
ENDMDL
REMARK VINA RESULT:      -8.3      5.713      9.876
REMARK  7 active torsions:
REMARK  status: ('A' for Active; 'I' for Inactive)
REMARK    1  A    between atoms: C1_1  and  C2_2 
REMARK    2  A    between atoms: C15_10  and  C2_2 
REMARK    3  A    between atoms: C2_2  and  N4_3 
REMARK    4  A    between atoms: C5_4  and  N4_3 
REMARK    5  A    between atoms: C18_25  and  C19_12 
REMARK    6  A    between atoms: C22_13  and  C24_14 
REMARK       I    between atoms: C22_13  and  N21_27 
REMARK    7  A    between atoms: C20_26  and  N21_27 
REMARK viewdock state: V
HETATM    1  C15 4VE A1008      -4.711   8.600 -34.820  0.93 33.54    -0.034 A 
HETATM    2  C16 4VE A1008      -4.108   9.787 -34.426  0.93 33.32    -0.074 A 
HETATM    3  C17 4VE A1008      -3.534   9.901 -33.170  0.93 32.81    -0.074 A 
HETATM    4  C18 4VE A1008      -3.548   8.831 -32.276  0.93 32.85    -0.035 A 
HETATM    5  C20 4VE A1008      -4.155   7.637 -32.670  0.93 30.45     0.041 A 
HETATM    6  C33 4VE A1008      -4.723   7.540 -33.929  0.93 29.62    -0.049 A 
HETATM    7  H41 4VE A1008      -4.089  10.520 -35.015  0.93 33.23     0.084 H 
HETATM    8  H42 4VE A1008      -3.127  10.714 -32.916  0.93 32.82     0.084 H 
HETATM    9  H52 4VE A1008      -5.131   6.730 -34.188  0.93 30.98     0.087 H 
HETATM   10  C2  4VE A1008      -5.360   8.404 -36.179  0.93 34.59     0.035 C 
HETATM   11  H3  4VE A1008      -6.039   9.113 -36.284  0.93 34.29     0.079 H 
HETATM   12  C1  4VE A1008      -6.068   7.059 -36.260  0.93 33.83    -0.053 C 
HETATM   13  H35 4VE A1008      -5.420   6.363 -36.477  0.93 31.92     0.030 H 
HETATM   14  H36 4VE A1008      -6.487   6.859 -35.401  0.93 33.31     0.030 H 
HETATM   15  H34 4VE A1008      -6.752   7.092 -36.955  0.93 32.17     0.030 H 
HETATM   16  N4  4VE A1008      -4.444   8.501 -37.315  0.93 34.85    -0.346 N 
HETATM   17  H37 4VE A1008      -4.435   9.226 -37.794  0.93 34.53     0.163 HD
HETATM   18  C5  4VE A1008      -3.467   7.580 -37.550  0.93 33.92     0.248 A 
HETATM   19  O14 4VE A1008      -3.634   6.700 -38.587  0.93 35.99    -0.276 OA
HETATM   20  C13 4VE A1008      -2.506   5.944 -38.539  0.93 34.99     0.108 A 
HETATM   21  C12 4VE A1008      -2.169   4.894 -39.381  0.93 35.37    -0.045 A 
HETATM   22  C7  4VE A1008      -1.701   6.354 -37.520  0.93 32.89     0.098 A 
HETATM   23  C11 4VE A1008      -0.961   4.243 -39.167  0.93 35.49    -0.043 A 
HETATM   24  H40 4VE A1008      -2.747   4.631 -40.078  0.93 34.91     0.088 H 
HETATM   25  C9  4VE A1008      -0.145   4.654 -38.138  0.93 30.88     0.118 A 
HETATM   26  H39 4VE A1008      -0.703   3.524 -39.720  0.93 32.48     0.088 H 
HETATM   27  C8  4VE A1008      -0.468   5.692 -37.298  0.93 31.03    -0.015 A 
HETATM   28  F10 4VE A1008       1.035   4.003 -37.943  0.93 36.95    -0.206 F 
HETATM   29  H38 4VE A1008       0.109   5.956 -36.600  0.93 31.26     0.091 H 
HETATM   30  N6  4VE A1008      -2.331   7.406 -36.893  0.93 34.26    -0.206 NA
HETATM   31  N21 4VE A1008      -4.203   6.516 -31.811  0.93 32.87    -0.321 N 
HETATM   32  C22 4VE A1008      -5.137   6.340 -30.840  0.93 28.85     0.274 C 
HETATM   33  O23 4VE A1008      -6.119   7.077 -30.746  0.93 28.72    -0.266 OA
HETATM   34  H46 4VE A1008      -3.597   5.903 -31.922  0.93 29.64     0.169 HD
HETATM   35  C24 4VE A1008      -4.932   5.224 -29.895  0.93 31.01     0.126 A 
HETATM   36  C25 4VE A1008      -5.723   4.138 -29.633  0.93 30.23     0.036 A 
HETATM   37  H47 4VE A1008      -6.547   3.953 -30.044  0.93 30.00     0.118 H 
HETATM   38  N26 4VE A1008      -5.146   3.337 -28.672  0.93 34.51    -0.240 NA
HETATM   39  C27 4VE A1008      -3.997   3.925 -28.336  0.93 31.96     0.134 A 
HETATM   40  N32 4VE A1008      -3.816   5.096 -29.064  0.93 29.99    -0.301 N 
HETATM   41  C28 4VE A1008      -2.997   3.562 -27.413  0.93 31.97    -0.038 A 
HETATM   42  C31 4VE A1008      -2.694   5.879 -28.887  0.93 32.55    -0.013 A 
HETATM   43  C30 4VE A1008      -1.731   5.515 -27.988  0.93 31.44    -0.067 A 
HETATM   44  H51 4VE A1008      -2.595   6.665 -29.392  0.93 31.50     0.112 H 
HETATM   45  C29 4VE A1008      -1.875   4.361 -27.248  0.93 32.38    -0.078 A 
HETATM   46  H50 4VE A1008      -0.967   6.054 -27.873  0.93 31.83     0.085 H 
HETATM   47  H49 4VE A1008      -1.210   4.114 -26.629  0.93 32.87     0.083 H 
HETATM   48  H48 4VE A1008      -3.090   2.778 -26.907  0.93 31.20     0.089 H 
HETATM   49  C19 4VE A1008      -2.914   8.995 -30.920  0.93 32.45    -0.049 C 
HETATM   50  H44 4VE A1008      -3.493   8.601 -30.239  0.93 32.28     0.033 H 
HETATM   51  H43 4VE A1008      -2.788   9.942 -30.730  0.93 31.24     0.033 H 
HETATM   52  H45 4VE A1008      -2.046   8.544 -30.907  0.93 32.31     0.033 H 
ENDMDL
