REMARK VINA RESULT:      -9.7      0.000      0.000
REMARK  13 active torsions:
REMARK  status: ('A' for Active; 'I' for Inactive)
REMARK    1  A    between atoms: C09_48  and  C10_1 
REMARK    2  A    between atoms: C13_6  and  C20_10 
REMARK    3  A    between atoms: C15_9  and  C16_44 
REMARK       I    between atoms: C20_10  and  N21_11 
REMARK    4  A    between atoms: C22_14  and  N21_11 
REMARK    5  A    between atoms: C27_16  and  O29_23 
REMARK    6  A    between atoms: C25_18  and  C26_40 
REMARK    7  A    between atoms: C30_24  and  O29_23 
REMARK    8  A    between atoms: C3_36  and  C35_34 
REMARK    9  A    between atoms: C1_42  and  C26_40 
REMARK   10  A    between atoms: C2_41  and  C26_40 
REMARK   11  A    between atoms: C09_48  and  N06_51 
REMARK   12  A    between atoms: C02_65  and  N03_56 
REMARK   13  A    between atoms: C01_68  and  C02_65 
REMARK viewdock state: V
HETATM    1  C20 DI1 A1000     -14.170   1.922 -49.822  1.00 35.22     0.256 C 
HETATM    2  N21 DI1 A1000     -15.500   2.022 -49.611  1.00 33.72    -0.323 N 
HETATM    3  H21 DI1 A1000     -15.847   2.930 -49.304  1.00  0.00     0.169 HD
HETATM    4  O40 DI1 A1000     -13.592   0.857 -49.972  1.00 34.16    -0.267 OA
HETATM    5  C13 DI1 A1000     -13.395   3.187 -49.737  1.00 33.40     0.033 A 
HETATM    6  C12 DI1 A1000     -13.527   4.140 -48.737  1.00 34.49    -0.067 A 
HETATM    7  C11 DI1 A1000     -12.808   5.315 -48.795  1.00 31.89    -0.073 A 
HETATM    8  H12 DI1 A1000     -14.211   3.955 -47.891  1.00  0.00     0.085 H 
HETATM    9  C10 DI1 A1000     -11.956   5.577 -49.857  1.00 31.19    -0.015 A 
HETATM   10  H11 DI1 A1000     -12.911   6.056 -47.984  1.00  0.00     0.084 H 
HETATM   11  C15 DI1 A1000     -11.845   4.637 -50.880  1.00 31.14     0.056 A 
HETATM   12  C14 DI1 A1000     -12.560   3.451 -50.811  1.00 32.40    -0.052 A 
HETATM   13  H14 DI1 A1000     -12.464   2.707 -51.621  1.00  0.00     0.086 H 
HETATM   14  C09 DI1 A1000     -11.124   6.835 -49.871  1.00 31.99     0.138 C 
HETATM   15 1H09 DI1 A1000     -11.765   7.746 -49.819  1.00  0.00     0.087 H 
HETATM   16 2H09 DI1 A1000     -10.661   7.002 -50.871  1.00  0.00     0.087 H 
HETATM   17  N06 DI1 A1000     -10.114   6.838 -48.814  1.00 31.70     0.096 N 
HETATM   18  C05 DI1 A1000     -10.277   7.984 -47.912  1.00 31.38     0.138 C 
HETATM   19 1H05 DI1 A1000     -10.252   8.953 -48.463  1.00  0.00     0.082 H 
HETATM   20 2H05 DI1 A1000     -11.314   8.049 -47.506  1.00  0.00     0.082 H 
HETATM   21  C04 DI1 A1000      -9.238   7.938 -46.804  1.00 30.37     0.138 C 
HETATM   22 1H04 DI1 A1000      -9.361   8.786 -46.088  1.00  0.00     0.082 H 
HETATM   23 2H04 DI1 A1000      -9.423   7.095 -46.100  1.00  0.00     0.082 H 
HETATM   24  N03 DI1 A1000      -7.884   7.892 -47.366  1.00 33.96     0.091 N 
HETATM   25  C08 DI1 A1000      -7.757   6.744 -48.270  1.00 32.34     0.138 C 
HETATM   26 1H08 DI1 A1000      -6.720   6.643 -48.667  1.00  0.00     0.082 H 
HETATM   27 2H08 DI1 A1000      -7.820   5.775 -47.721  1.00  0.00     0.082 H 
HETATM   28  C07 DI1 A1000      -8.765   6.826 -49.370  1.00 31.73     0.138 C 
HETATM   29 1H07 DI1 A1000      -8.632   6.011 -50.120  1.00  0.00     0.082 H 
HETATM   30 2H07 DI1 A1000      -8.582   7.698 -50.040  1.00  0.00     0.082 H 
HETATM   31  C02 DI1 A1000      -6.893   7.753 -46.302  1.00 36.77     0.110 C 
HETATM   32 1H02 DI1 A1000      -7.247   7.017 -45.544  1.00  0.00     0.079 H 
HETATM   33 2H02 DI1 A1000      -5.992   7.222 -46.689  1.00  0.00     0.079 H 
HETATM   34  C01 DI1 A1000      -6.489   9.008 -45.636  1.00 38.92    -0.051 C 
HETATM   35 1H01 DI1 A1000      -7.213   9.415 -44.892  1.00  0.00     0.029 H 
HETATM   36 2H01 DI1 A1000      -6.253   9.785 -46.401  1.00  0.00     0.029 H 
HETATM   37 3H01 DI1 A1000      -5.487   8.882 -45.164  1.00  0.00     0.029 H 
HETATM   38  C16 DI1 A1000     -10.942   4.843 -52.048  1.00 34.07     0.418 C 
HETATM   39  F19 DI1 A1000     -11.079   3.962 -52.928  1.00 32.66    -0.166 F 
HETATM   40  F17 DI1 A1000      -9.728   4.818 -51.725  1.00 35.34    -0.166 F 
HETATM   41  F18 DI1 A1000     -11.142   5.953 -52.655  1.00 34.55    -0.166 F 
HETATM   42  C22 DI1 A1000     -16.460   0.998 -49.770  1.00 30.76     0.037 A 
HETATM   43  C28 DI1 A1000     -16.658   0.474 -51.035  1.00 29.62    -0.024 A 
HETATM   44  C27 DI1 A1000     -17.623  -0.486 -51.240  1.00 29.96     0.085 A 
HETATM   45  H28 DI1 A1000     -16.039   0.824 -51.879  1.00  0.00     0.091 H 
HETATM   46  C25 DI1 A1000     -18.401  -0.965 -50.185  1.00 30.34    -0.020 A 
HETATM   47  C24 DI1 A1000     -18.150  -0.464 -48.918  1.00 31.32    -0.072 A 
HETATM   48  C23 DI1 A1000     -17.202   0.515 -48.707  1.00 30.63    -0.056 A 
HETATM   49  H24 DI1 A1000     -18.719  -0.858 -48.060  1.00  0.00     0.084 H 
HETATM   50  H23 DI1 A1000     -17.036   0.913 -47.692  1.00  0.00     0.086 H 
HETATM   51  O29 DI1 A1000     -17.816  -0.620 -52.575  1.00 30.38    -0.310 OA
HETATM   52  C30 DI1 A1000     -17.198  -1.382 -53.520  1.00 34.16     0.076 A 
HETATM   53  C39 DI1 A1000     -17.507  -1.227 -54.862  1.00 33.39    -0.041 A 
HETATM   54  C34 DI1 A1000     -16.661  -1.770 -55.810  1.00 31.98    -0.016 A 
HETATM   55  H39 DI1 A1000     -18.415  -0.678 -55.168  1.00  0.00     0.088 H 
HETATM   56  C33 DI1 A1000     -15.525  -2.462 -55.401  1.00 33.51     0.042 A 
HETATM   57  C35 DI1 A1000     -16.703  -1.800 -57.303  1.00 32.48     0.051 A 
HETATM   58  C32 DI1 A1000     -15.226  -2.616 -54.065  1.00 36.25    -0.054 A 
HETATM   59  N37 DI1 A1000     -14.850  -2.930 -56.513  1.00 35.18    -0.326 N 
HETATM   60  C31 DI1 A1000     -16.081  -2.086 -53.121  1.00 33.93    -0.048 A 
HETATM   61  H32 DI1 A1000     -14.317  -3.157 -53.754  1.00  0.00     0.087 H 
HETATM   62  H31 DI1 A1000     -15.872  -2.225 -52.047  1.00  0.00     0.087 H 
HETATM   63  C36 DI1 A1000     -15.467  -2.571 -57.669  1.00 33.97     0.230 A 
HETATM   64  H37 DI1 A1000     -13.992  -3.479 -56.470  1.00  0.00     0.169 HD
HETATM   65  O38 DI1 A1000     -15.064  -2.828 -58.785  1.00 41.19    -0.272 OA
HETATM   66 1H35 DI1 A1000     -17.647  -2.211 -57.731  1.00  0.00     0.062 H 
HETATM   67  C3  DI1 A1000     -16.814  -0.431 -57.963  1.00  0.00    -0.049 C 
HETATM   68  H4  DI1 A1000     -17.786  -0.012 -58.179  1.00  0.00     0.034 H 
HETATM   69  H1  DI1 A1000     -15.921   0.121 -58.214  1.00  0.00     0.034 H 
HETATM   70  C26 DI1 A1000     -19.482  -1.986 -50.402  1.00 31.24    -0.026 C 
HETATM   71 1H26 DI1 A1000     -20.226  -1.858 -51.222  1.00  0.00     0.047 H 
HETATM   72  C1  DI1 A1000     -20.241  -2.162 -49.091  1.00  0.00    -0.057 C 
HETATM   73  H1  DI1 A1000     -20.677  -3.119 -48.845  1.00  0.00     0.034 H 
HETATM   74  H2  DI1 A1000     -20.341  -1.331 -48.409  1.00  0.00     0.034 H 
HETATM   75  C2  DI1 A1000     -18.823  -3.351 -50.564  1.00  0.00    -0.057 C 
HETATM   76  H1  DI1 A1000     -17.747  -3.430 -50.604  1.00  0.00     0.034 H 
HETATM   77  H3  DI1 A1000     -19.433  -4.239 -50.640  1.00  0.00     0.034 H 
ENDMDL
REMARK VINA RESULT:      -9.6      2.788      5.967
REMARK  13 active torsions:
REMARK  status: ('A' for Active; 'I' for Inactive)
REMARK    1  A    between atoms: C09_48  and  C10_1 
REMARK    2  A    between atoms: C13_6  and  C20_10 
REMARK    3  A    between atoms: C15_9  and  C16_44 
REMARK       I    between atoms: C20_10  and  N21_11 
REMARK    4  A    between atoms: C22_14  and  N21_11 
REMARK    5  A    between atoms: C27_16  and  O29_23 
REMARK    6  A    between atoms: C25_18  and  C26_40 
REMARK    7  A    between atoms: C30_24  and  O29_23 
REMARK    8  A    between atoms: C3_36  and  C35_34 
REMARK    9  A    between atoms: C1_42  and  C26_40 
REMARK   10  A    between atoms: C2_41  and  C26_40 
REMARK   11  A    between atoms: C09_48  and  N06_51 
REMARK   12  A    between atoms: C02_65  and  N03_56 
REMARK   13  A    between atoms: C01_68  and  C02_65 
REMARK viewdock state: V
HETATM    1  C20 DI1 A1000     -13.282   2.505 -49.948  1.00 35.22     0.256 C 
HETATM    2  N21 DI1 A1000     -14.500   2.519 -50.530  1.00 33.72    -0.323 N 
HETATM    3  H21 DI1 A1000     -14.897   3.435 -50.737  1.00  0.00     0.169 HD
HETATM    4  O40 DI1 A1000     -12.789   1.507 -49.446  1.00 34.16    -0.267 OA
HETATM    5  C13 DI1 A1000     -12.597   3.818 -49.826  1.00 33.40     0.033 A 
HETATM    6  C12 DI1 A1000     -12.881   4.782 -48.869  1.00 34.49    -0.067 A 
HETATM    7  C11 DI1 A1000     -12.233   5.999 -48.893  1.00 31.89    -0.073 A 
HETATM    8  H12 DI1 A1000     -13.629   4.573 -48.085  1.00  0.00     0.085 H 
HETATM    9  C10 DI1 A1000     -11.302   6.291 -49.879  1.00 31.19    -0.015 A 
HETATM   10  H11 DI1 A1000     -12.457   6.749 -48.116  1.00  0.00     0.084 H 
HETATM   11  C15 DI1 A1000     -11.038   5.338 -50.861  1.00 31.14     0.056 A 
HETATM   12  C14 DI1 A1000     -11.682   4.110 -50.825  1.00 32.40    -0.052 A 
HETATM   13  H14 DI1 A1000     -11.465   3.357 -51.601  1.00  0.00     0.086 H 
HETATM   14  C09 DI1 A1000     -10.550   7.598 -49.850  1.00 31.99     0.138 C 
HETATM   15 1H09 DI1 A1000     -11.232   8.462 -50.033  1.00  0.00     0.087 H 
HETATM   16 2H09 DI1 A1000      -9.890   7.703 -50.742  1.00  0.00     0.087 H 
HETATM   17  N06 DI1 A1000      -9.796   7.773 -48.610  1.00 31.70     0.096 N 
HETATM   18  C05 DI1 A1000      -9.496   9.186 -48.352  1.00 31.38     0.138 C 
HETATM   19 1H05 DI1 A1000      -8.943   9.653 -49.201  1.00  0.00     0.082 H 
HETATM   20 2H05 DI1 A1000     -10.413   9.818 -48.381  1.00  0.00     0.082 H 
HETATM   21  C04 DI1 A1000      -8.746   9.337 -47.040  1.00 30.37     0.138 C 
HETATM   22 1H04 DI1 A1000      -8.530  10.408 -46.809  1.00  0.00     0.082 H 
HETATM   23 2H04 DI1 A1000      -9.395   9.104 -46.165  1.00  0.00     0.082 H 
HETATM   24  N03 DI1 A1000      -7.525   8.525 -47.044  1.00 33.96     0.091 N 
HETATM   25  C08 DI1 A1000      -7.857   7.123 -47.314  1.00 32.34     0.138 C 
HETATM   26 1H08 DI1 A1000      -6.958   6.467 -47.263  1.00  0.00     0.082 H 
HETATM   27 2H08 DI1 A1000      -8.443   6.668 -46.480  1.00  0.00     0.082 H 
HETATM   28  C07 DI1 A1000      -8.564   6.991 -48.624  1.00 31.73     0.138 C 
HETATM   29 1H07 DI1 A1000      -8.751   5.926 -48.894  1.00  0.00     0.082 H 
HETATM   30 2H07 DI1 A1000      -7.907   7.267 -49.482  1.00  0.00     0.082 H 
HETATM   31  C02 DI1 A1000      -6.856   8.599 -45.747  1.00 36.77     0.110 C 
HETATM   32 1H02 DI1 A1000      -6.737   9.664 -45.440  1.00  0.00     0.079 H 
HETATM   33 2H02 DI1 A1000      -7.541   8.236 -44.945  1.00  0.00     0.079 H 
HETATM   34  C01 DI1 A1000      -5.559   7.899 -45.655  1.00 38.92    -0.051 C 
HETATM   35 1H01 DI1 A1000      -4.736   8.468 -45.164  1.00  0.00     0.029 H 
HETATM   36 2H01 DI1 A1000      -5.236   7.562 -46.668  1.00  0.00     0.029 H 
HETATM   37 3H01 DI1 A1000      -5.694   6.913 -45.152  1.00  0.00     0.029 H 
HETATM   38  C16 DI1 A1000     -10.043   5.575 -51.945  1.00 34.07     0.418 C 
HETATM   39  F19 DI1 A1000      -9.654   4.514 -52.486  1.00 32.66    -0.166 F 
HETATM   40  F17 DI1 A1000      -9.005   6.145 -51.526  1.00 35.34    -0.166 F 
HETATM   41  F18 DI1 A1000     -10.499   6.290 -52.904  1.00 34.55    -0.166 F 
HETATM   42  C22 DI1 A1000     -15.283   1.397 -50.880  1.00 30.76     0.037 A 
HETATM   43  C28 DI1 A1000     -16.275   0.989 -50.007  1.00 29.62    -0.024 A 
HETATM   44  C27 DI1 A1000     -17.021  -0.134 -50.287  1.00 29.96     0.085 A 
HETATM   45  H28 DI1 A1000     -16.469   1.565 -49.085  1.00  0.00     0.091 H 
HETATM   46  C25 DI1 A1000     -16.814  -0.865 -51.457  1.00 30.34    -0.020 A 
HETATM   47  C24 DI1 A1000     -15.852  -0.408 -52.342  1.00 31.32    -0.072 A 
HETATM   48  C23 DI1 A1000     -15.082   0.700 -52.059  1.00 30.63    -0.056 A 
HETATM   49  H24 DI1 A1000     -15.699  -0.942 -53.295  1.00  0.00     0.084 H 
HETATM   50  H23 DI1 A1000     -14.307   1.031 -52.771  1.00  0.00     0.086 H 
HETATM   51  O29 DI1 A1000     -17.706  -0.481 -49.170  1.00 30.38    -0.310 OA
HETATM   52  C30 DI1 A1000     -18.865  -0.021 -48.623  1.00 34.16     0.076 A 
HETATM   53  C39 DI1 A1000     -18.958   0.211 -47.259  1.00 33.39    -0.041 A 
HETATM   54  C34 DI1 A1000     -20.013   0.963 -46.780  1.00 31.98    -0.016 A 
HETATM   55  H39 DI1 A1000     -18.199  -0.198 -46.568  1.00  0.00     0.088 H 
HETATM   56  C33 DI1 A1000     -20.960   1.465 -47.668  1.00 33.51     0.042 A 
HETATM   57  C35 DI1 A1000     -20.412   1.380 -45.401  1.00 32.48     0.051 A 
HETATM   58  C32 DI1 A1000     -20.864   1.227 -49.021  1.00 36.25    -0.054 A 
HETATM   59  N37 DI1 A1000     -21.924   2.160 -46.962  1.00 35.18    -0.326 N 
HETATM   60  C31 DI1 A1000     -19.817   0.463 -49.495  1.00 33.93    -0.048 A 
HETATM   61  H32 DI1 A1000     -21.614   1.640 -49.716  1.00  0.00     0.087 H 
HETATM   62  H31 DI1 A1000     -19.742   0.239 -50.573  1.00  0.00     0.087 H 
HETATM   63  C36 DI1 A1000     -21.668   2.170 -45.628  1.00 33.97     0.230 A 
HETATM   64  H37 DI1 A1000     -22.732   2.610 -47.393  1.00  0.00     0.169 HD
HETATM   65  O38 DI1 A1000     -22.342   2.737 -44.792  1.00 41.19    -0.272 OA
HETATM   66 1H35 DI1 A1000     -20.520   0.539 -44.676  1.00  0.00     0.062 H 
HETATM   67  C3  DI1 A1000     -19.330   2.119 -44.623  1.00  0.00    -0.049 C 
HETATM   68  H4  DI1 A1000     -18.347   1.684 -44.517  1.00  0.00     0.034 H 
HETATM   69  H1  DI1 A1000     -19.546   3.079 -44.178  1.00  0.00     0.034 H 
HETATM   70  C26 DI1 A1000     -17.598  -2.112 -51.757  1.00 31.24    -0.026 C 
HETATM   71 1H26 DI1 A1000     -17.747  -2.889 -50.973  1.00  0.00     0.047 H 
HETATM   72  C1  DI1 A1000     -16.981  -2.779 -52.981  1.00  0.00    -0.057 C 
HETATM   73  H1  DI1 A1000     -15.922  -2.689 -53.169  1.00  0.00     0.034 H 
HETATM   74  H2  DI1 A1000     -17.604  -3.344 -53.659  1.00  0.00     0.034 H 
HETATM   75  C2  DI1 A1000     -18.967  -1.699 -52.287  1.00  0.00    -0.057 C 
HETATM   76  H1  DI1 A1000     -19.188  -1.791 -53.340  1.00  0.00     0.034 H 
HETATM   77  H3  DI1 A1000     -19.714  -1.314 -51.609  1.00  0.00     0.034 H 
ENDMDL
REMARK VINA RESULT:      -9.5      3.242      6.323
REMARK  13 active torsions:
REMARK  status: ('A' for Active; 'I' for Inactive)
REMARK    1  A    between atoms: C09_48  and  C10_1 
REMARK    2  A    between atoms: C13_6  and  C20_10 
REMARK    3  A    between atoms: C15_9  and  C16_44 
REMARK       I    between atoms: C20_10  and  N21_11 
REMARK    4  A    between atoms: C22_14  and  N21_11 
REMARK    5  A    between atoms: C27_16  and  O29_23 
REMARK    6  A    between atoms: C25_18  and  C26_40 
REMARK    7  A    between atoms: C30_24  and  O29_23 
REMARK    8  A    between atoms: C3_36  and  C35_34 
REMARK    9  A    between atoms: C1_42  and  C26_40 
REMARK   10  A    between atoms: C2_41  and  C26_40 
REMARK   11  A    between atoms: C09_48  and  N06_51 
REMARK   12  A    between atoms: C02_65  and  N03_56 
REMARK   13  A    between atoms: C01_68  and  C02_65 
REMARK viewdock state: V
HETATM    1  C20 DI1 A1000     -14.029   2.095 -49.766  1.00 35.22     0.256 C 
HETATM    2  N21 DI1 A1000     -15.371   2.239 -49.719  1.00 33.72    -0.323 N 
HETATM    3  H21 DI1 A1000     -15.724   3.182 -49.562  1.00  0.00     0.169 HD
HETATM    4  O40 DI1 A1000     -13.468   1.011 -49.723  1.00 34.16    -0.267 OA
HETATM    5  C13 DI1 A1000     -13.233   3.349 -49.744  1.00 33.40     0.033 A 
HETATM    6  C12 DI1 A1000     -13.338   4.347 -48.786  1.00 34.49    -0.067 A 
HETATM    7  C11 DI1 A1000     -12.601   5.506 -48.903  1.00 31.89    -0.073 A 
HETATM    8  H12 DI1 A1000     -14.015   4.210 -47.925  1.00  0.00     0.085 H 
HETATM    9  C10 DI1 A1000     -11.757   5.707 -49.984  1.00 31.19    -0.015 A 
HETATM   10  H11 DI1 A1000     -12.683   6.283 -48.123  1.00  0.00     0.084 H 
HETATM   11  C15 DI1 A1000     -11.672   4.722 -50.966  1.00 31.14     0.056 A 
HETATM   12  C14 DI1 A1000     -12.406   3.551 -50.838  1.00 32.40    -0.052 A 
HETATM   13  H14 DI1 A1000     -12.330   2.772 -51.615  1.00  0.00     0.086 H 
HETATM   14  C09 DI1 A1000     -10.904   6.949 -50.061  1.00 31.99     0.138 C 
HETATM   15 1H09 DI1 A1000     -11.515   7.844 -50.326  1.00  0.00     0.087 H 
HETATM   16 2H09 DI1 A1000     -10.234   6.924 -50.952  1.00  0.00     0.087 H 
HETATM   17  N06 DI1 A1000     -10.143   7.171 -48.834  1.00 31.70     0.096 N 
HETATM   18  C05 DI1 A1000     -10.103   8.593 -48.470  1.00 31.38     0.138 C 
HETATM   19 1H05 DI1 A1000      -9.687   9.220 -49.293  1.00  0.00     0.082 H 
HETATM   20 2H05 DI1 A1000     -11.124   9.038 -48.420  1.00  0.00     0.082 H 
HETATM   21  C04 DI1 A1000      -9.338   8.786 -47.172  1.00 30.37     0.138 C 
HETATM   22 1H04 DI1 A1000      -9.318   9.858 -46.860  1.00  0.00     0.082 H 
HETATM   23 2H04 DI1 A1000      -9.892   8.368 -46.300  1.00  0.00     0.082 H 
HETATM   24  N03 DI1 A1000      -7.987   8.226 -47.278  1.00 33.96     0.091 N 
HETATM   25  C08 DI1 A1000      -8.060   6.810 -47.652  1.00 32.34     0.138 C 
HETATM   26 1H08 DI1 A1000      -7.052   6.337 -47.681  1.00  0.00     0.082 H 
HETATM   27 2H08 DI1 A1000      -8.512   6.190 -46.842  1.00  0.00     0.082 H 
HETATM   28  C07 DI1 A1000      -8.786   6.644 -48.948  1.00 31.73     0.138 C 
HETATM   29 1H07 DI1 A1000      -8.780   5.586 -49.298  1.00  0.00     0.082 H 
HETATM   30 2H07 DI1 A1000      -8.232   7.104 -49.799  1.00  0.00     0.082 H 
HETATM   31  C02 DI1 A1000      -7.287   8.329 -45.999  1.00 36.77     0.110 C 
HETATM   32 1H02 DI1 A1000      -7.238   9.395 -45.677  1.00  0.00     0.079 H 
HETATM   33 2H02 DI1 A1000      -7.920   7.905 -45.185  1.00  0.00     0.079 H 
HETATM   34  C01 DI1 A1000      -5.940   7.726 -45.956  1.00 38.92    -0.051 C 
HETATM   35 1H01 DI1 A1000      -5.215   8.211 -45.262  1.00  0.00     0.029 H 
HETATM   36 2H01 DI1 A1000      -5.511   7.682 -46.985  1.00  0.00     0.029 H 
HETATM   37 3H01 DI1 A1000      -6.019   6.637 -45.727  1.00  0.00     0.029 H 
HETATM   38  C16 DI1 A1000     -10.779   4.861 -52.151  1.00 34.07     0.418 C 
HETATM   39  F19 DI1 A1000     -10.981   5.920 -52.789  1.00 32.66    -0.166 F 
HETATM   40  F17 DI1 A1000     -10.932   3.929 -52.979  1.00 35.34    -0.166 F 
HETATM   41  F18 DI1 A1000      -9.534   4.887 -51.847  1.00 34.55    -0.166 F 
HETATM   42  C22 DI1 A1000     -16.336   1.218 -49.864  1.00 30.76     0.037 A 
HETATM   43  C28 DI1 A1000     -17.376   1.164 -48.954  1.00 29.62    -0.024 A 
HETATM   44  C27 DI1 A1000     -18.306   0.151 -49.029  1.00 29.96     0.085 A 
HETATM   45  H28 DI1 A1000     -17.463   1.935 -48.169  1.00  0.00     0.091 H 
HETATM   46  C25 DI1 A1000     -18.236  -0.821 -50.027  1.00 30.34    -0.020 A 
HETATM   47  C24 DI1 A1000     -17.216  -0.717 -50.959  1.00 31.32    -0.072 A 
HETATM   48  C23 DI1 A1000     -16.266   0.279 -50.878  1.00 30.63    -0.056 A 
HETATM   49  H24 DI1 A1000     -17.164  -1.446 -51.784  1.00  0.00     0.084 H 
HETATM   50  H23 DI1 A1000     -15.452   0.327 -51.620  1.00  0.00     0.086 H 
HETATM   51  O29 DI1 A1000     -19.031   0.152 -47.884  1.00 30.38    -0.310 OA
HETATM   52  C30 DI1 A1000     -19.841   1.085 -47.310  1.00 34.16     0.076 A 
HETATM   53  C39 DI1 A1000     -20.891   1.641 -48.025  1.00 33.39    -0.041 A 
HETATM   54  C34 DI1 A1000     -21.873   2.331 -47.341  1.00 31.98    -0.016 A 
HETATM   55  H39 DI1 A1000     -20.941   1.532 -49.123  1.00  0.00     0.088 H 
HETATM   56  C33 DI1 A1000     -21.787   2.460 -45.958  1.00 33.51     0.042 A 
HETATM   57  C35 DI1 A1000     -23.104   3.049 -47.792  1.00 32.48     0.051 A 
HETATM   58  C32 DI1 A1000     -20.739   1.909 -45.255  1.00 36.25    -0.054 A 
HETATM   59  N37 DI1 A1000     -22.860   3.202 -45.500  1.00 35.18    -0.326 N 
HETATM   60  C31 DI1 A1000     -19.752   1.233 -45.942  1.00 33.93    -0.048 A 
HETATM   61  H32 DI1 A1000     -20.687   2.007 -44.158  1.00  0.00     0.087 H 
HETATM   62  H31 DI1 A1000     -18.891   0.810 -45.398  1.00  0.00     0.087 H 
HETATM   63  C36 DI1 A1000     -23.688   3.573 -46.512  1.00 33.97     0.230 A 
HETATM   64  H37 DI1 A1000     -23.009   3.443 -44.521  1.00  0.00     0.169 HD
HETATM   65  O38 DI1 A1000     -24.717   4.204 -46.376  1.00 41.19    -0.272 OA
HETATM   66 1H35 DI1 A1000     -22.927   3.826 -48.571  1.00  0.00     0.062 H 
HETATM   67  C3  DI1 A1000     -24.061   2.206 -48.625  1.00  0.00    -0.049 C 
HETATM   68  H4  DI1 A1000     -24.562   2.640 -49.478  1.00  0.00     0.034 H 
HETATM   69  H1  DI1 A1000     -24.238   1.173 -48.364  1.00  0.00     0.034 H 
HETATM   70  C26 DI1 A1000     -19.223  -1.952 -50.098  1.00 31.24    -0.026 C 
HETATM   71 1H26 DI1 A1000     -19.634  -2.404 -49.166  1.00  0.00     0.047 H 
HETATM   72  C1  DI1 A1000     -18.612  -3.066 -50.940  1.00  0.00    -0.057 C 
HETATM   73  H1  DI1 A1000     -17.709  -2.884 -51.503  1.00  0.00     0.034 H 
HETATM   74  H2  DI1 A1000     -19.082  -4.038 -50.972  1.00  0.00     0.034 H 
HETATM   75  C2  DI1 A1000     -20.392  -1.510 -50.971  1.00  0.00    -0.057 C 
HETATM   76  H1  DI1 A1000     -21.386  -1.882 -50.769  1.00  0.00     0.034 H 
HETATM   77  H3  DI1 A1000     -20.227  -0.826 -51.790  1.00  0.00     0.034 H 
ENDMDL
REMARK VINA RESULT:      -9.2     15.507     19.830
REMARK  13 active torsions:
REMARK  status: ('A' for Active; 'I' for Inactive)
REMARK    1  A    between atoms: C09_48  and  C10_1 
REMARK    2  A    between atoms: C13_6  and  C20_10 
REMARK    3  A    between atoms: C15_9  and  C16_44 
REMARK       I    between atoms: C20_10  and  N21_11 
REMARK    4  A    between atoms: C22_14  and  N21_11 
REMARK    5  A    between atoms: C27_16  and  O29_23 
REMARK    6  A    between atoms: C25_18  and  C26_40 
REMARK    7  A    between atoms: C30_24  and  O29_23 
REMARK    8  A    between atoms: C3_36  and  C35_34 
REMARK    9  A    between atoms: C1_42  and  C26_40 
REMARK   10  A    between atoms: C2_41  and  C26_40 
REMARK   11  A    between atoms: C09_48  and  N06_51 
REMARK   12  A    between atoms: C02_65  and  N03_56 
REMARK   13  A    between atoms: C01_68  and  C02_65 
REMARK viewdock state: V
HETATM    1  C20 DI1 A1000      -4.582   6.550 -35.372  1.00 35.22     0.256 C 
HETATM    2  N21 DI1 A1000      -3.617   6.243 -36.265  1.00 33.72    -0.323 N 
HETATM    3  H21 DI1 A1000      -3.666   5.317 -36.690  1.00  0.00     0.169 HD
HETATM    4  O40 DI1 A1000      -4.526   7.518 -34.629  1.00 34.16    -0.267 OA
HETATM    5  C13 DI1 A1000      -5.687   5.567 -35.234  1.00 33.40     0.033 A 
HETATM    6  C12 DI1 A1000      -7.024   5.823 -35.504  1.00 34.49    -0.067 A 
HETATM    7  C11 DI1 A1000      -7.979   4.856 -35.272  1.00 31.89    -0.073 A 
HETATM    8  H12 DI1 A1000      -7.323   6.806 -35.907  1.00  0.00     0.085 H 
HETATM    9  C10 DI1 A1000      -7.630   3.620 -34.750  1.00 31.19    -0.015 A 
HETATM   10  H11 DI1 A1000      -9.036   5.069 -35.507  1.00  0.00     0.084 H 
HETATM   11  C15 DI1 A1000      -6.292   3.369 -34.447  1.00 31.14     0.056 A 
HETATM   12  C14 DI1 A1000      -5.333   4.340 -34.695  1.00 32.40    -0.052 A 
HETATM   13  H14 DI1 A1000      -4.275   4.135 -34.459  1.00  0.00     0.086 H 
HETATM   14  C09 DI1 A1000      -8.676   2.549 -34.568  1.00 31.99     0.138 C 
HETATM   15 1H09 DI1 A1000      -8.465   1.926 -33.667  1.00  0.00     0.087 H 
HETATM   16 2H09 DI1 A1000      -8.586   1.761 -35.351  1.00  0.00     0.087 H 
HETATM   17  N06 DI1 A1000     -10.028   3.101 -34.525  1.00 31.70     0.096 N 
HETATM   18  C05 DI1 A1000     -10.578   3.085 -33.165  1.00 31.38     0.138 C 
HETATM   19 1H05 DI1 A1000     -10.574   2.059 -32.728  1.00  0.00     0.082 H 
HETATM   20 2H05 DI1 A1000      -9.896   3.580 -32.435  1.00  0.00     0.082 H 
HETATM   21  C04 DI1 A1000     -11.967   3.699 -33.147  1.00 30.37     0.138 C 
HETATM   22 1H04 DI1 A1000     -12.395   3.723 -32.117  1.00  0.00     0.082 H 
HETATM   23 2H04 DI1 A1000     -11.936   4.796 -33.342  1.00  0.00     0.082 H 
HETATM   24  N03 DI1 A1000     -12.853   3.004 -34.088  1.00 33.96     0.091 N 
HETATM   25  C08 DI1 A1000     -12.271   3.030 -35.433  1.00 32.34     0.138 C 
HETATM   26 1H08 DI1 A1000     -12.949   2.564 -36.186  1.00  0.00     0.082 H 
HETATM   27 2H08 DI1 A1000     -12.242   4.062 -35.853  1.00  0.00     0.082 H 
HETATM   28  C07 DI1 A1000     -10.920   2.391 -35.436  1.00 31.73     0.138 C 
HETATM   29 1H07 DI1 A1000     -10.493   2.319 -36.463  1.00  0.00     0.082 H 
HETATM   30 2H07 DI1 A1000     -10.972   1.302 -35.202  1.00  0.00     0.082 H 
HETATM   31  C02 DI1 A1000     -14.159   3.656 -34.138  1.00 36.77     0.110 C 
HETATM   32 1H02 DI1 A1000     -14.834   3.219 -33.366  1.00  0.00     0.079 H 
HETATM   33 2H02 DI1 A1000     -14.077   4.702 -33.760  1.00  0.00     0.079 H 
HETATM   34  C01 DI1 A1000     -14.828   3.649 -35.455  1.00 38.92    -0.051 C 
HETATM   35 1H01 DI1 A1000     -15.927   3.836 -35.440  1.00  0.00     0.029 H 
HETATM   36 2H01 DI1 A1000     -14.612   2.691 -35.985  1.00  0.00     0.029 H 
HETATM   37 3H01 DI1 A1000     -14.328   4.372 -36.140  1.00  0.00     0.029 H 
HETATM   38  C16 DI1 A1000      -5.838   2.062 -33.895  1.00 34.07     0.418 C 
HETATM   39  F19 DI1 A1000      -4.591   1.961 -33.852  1.00 32.66    -0.166 F 
HETATM   40  F17 DI1 A1000      -6.237   1.088 -34.581  1.00 35.34    -0.166 F 
HETATM   41  F18 DI1 A1000      -6.231   1.856 -32.693  1.00 34.55    -0.166 F 
HETATM   42  C22 DI1 A1000      -2.547   7.070 -36.671  1.00 30.76     0.037 A 
HETATM   43  C28 DI1 A1000      -2.817   8.120 -37.530  1.00 29.62    -0.024 A 
HETATM   44  C27 DI1 A1000      -1.791   8.913 -37.992  1.00 29.96     0.085 A 
HETATM   45  H28 DI1 A1000      -3.855   8.323 -37.843  1.00  0.00     0.091 H 
HETATM   46  C25 DI1 A1000      -0.472   8.696 -37.591  1.00 30.34    -0.020 A 
HETATM   47  C24 DI1 A1000      -0.232   7.672 -36.690  1.00 31.32    -0.072 A 
HETATM   48  C23 DI1 A1000      -1.249   6.856 -36.241  1.00 30.63    -0.056 A 
HETATM   49  H24 DI1 A1000       0.794   7.507 -36.323  1.00  0.00     0.084 H 
HETATM   50  H23 DI1 A1000      -1.028   6.033 -35.540  1.00  0.00     0.086 H 
HETATM   51  O29 DI1 A1000      -2.262   9.664 -39.018  1.00 30.38    -0.310 OA
HETATM   52  C30 DI1 A1000      -2.445   9.400 -40.341  1.00 34.16     0.076 A 
HETATM   53  C39 DI1 A1000      -1.464   8.745 -41.071  1.00 33.39    -0.041 A 
HETATM   54  C34 DI1 A1000      -1.792   8.213 -42.303  1.00 31.98    -0.016 A 
HETATM   55  H39 DI1 A1000      -0.439   8.650 -40.672  1.00  0.00     0.088 H 
HETATM   56  C33 DI1 A1000      -3.090   8.349 -42.788  1.00 33.51     0.042 A 
HETATM   57  C35 DI1 A1000      -0.994   7.477 -43.330  1.00 32.48     0.051 A 
HETATM   58  C32 DI1 A1000      -4.058   9.004 -42.059  1.00 36.25    -0.054 A 
HETATM   59  N37 DI1 A1000      -3.175   7.762 -44.037  1.00 35.18    -0.326 N 
HETATM   60  C31 DI1 A1000      -3.723   9.547 -40.836  1.00 33.93    -0.048 A 
HETATM   61  H32 DI1 A1000      -5.085   9.095 -42.448  1.00  0.00     0.087 H 
HETATM   62  H31 DI1 A1000      -4.479  10.100 -40.253  1.00  0.00     0.087 H 
HETATM   63  C36 DI1 A1000      -1.992   7.215 -44.421  1.00 33.97     0.230 A 
HETATM   64  H37 DI1 A1000      -4.024   7.745 -44.602  1.00  0.00     0.169 HD
HETATM   65  O38 DI1 A1000      -1.806   6.614 -45.460  1.00 41.19    -0.272 OA
HETATM   66 1H35 DI1 A1000      -0.072   8.005 -43.666  1.00  0.00     0.062 H 
HETATM   67  C3  DI1 A1000      -0.283   6.234 -42.810  1.00  0.00    -0.049 C 
HETATM   68  H4  DI1 A1000      -0.807   5.538 -42.173  1.00  0.00     0.034 H 
HETATM   69  H1  DI1 A1000       0.746   6.048 -43.080  1.00  0.00     0.034 H 
HETATM   70  C26 DI1 A1000       0.660   9.532 -38.116  1.00 31.24    -0.026 C 
HETATM   71 1H26 DI1 A1000       0.475  10.566 -38.488  1.00  0.00     0.047 H 
HETATM   72  C1  DI1 A1000       1.364   8.746 -39.216  1.00  0.00    -0.057 C 
HETATM   73  H1  DI1 A1000       0.787   8.145 -39.903  1.00  0.00     0.034 H 
HETATM   74  H2  DI1 A1000       2.439   8.792 -39.309  1.00  0.00     0.034 H 
HETATM   75  C2  DI1 A1000       1.741   9.598 -37.043  1.00  0.00    -0.057 C 
HETATM   76  H1  DI1 A1000       1.882   8.768 -36.367  1.00  0.00     0.034 H 
HETATM   77  H3  DI1 A1000       2.366  10.476 -36.959  1.00  0.00     0.034 H 
ENDMDL
REMARK VINA RESULT:      -9.0      1.371      1.905
REMARK  13 active torsions:
REMARK  status: ('A' for Active; 'I' for Inactive)
REMARK    1  A    between atoms: C09_48  and  C10_1 
REMARK    2  A    between atoms: C13_6  and  C20_10 
REMARK    3  A    between atoms: C15_9  and  C16_44 
REMARK       I    between atoms: C20_10  and  N21_11 
REMARK    4  A    between atoms: C22_14  and  N21_11 
REMARK    5  A    between atoms: C27_16  and  O29_23 
REMARK    6  A    between atoms: C25_18  and  C26_40 
REMARK    7  A    between atoms: C30_24  and  O29_23 
REMARK    8  A    between atoms: C3_36  and  C35_34 
REMARK    9  A    between atoms: C1_42  and  C26_40 
REMARK   10  A    between atoms: C2_41  and  C26_40 
REMARK   11  A    between atoms: C09_48  and  N06_51 
REMARK   12  A    between atoms: C02_65  and  N03_56 
REMARK   13  A    between atoms: C01_68  and  C02_65 
REMARK viewdock state: V
HETATM    1  C20 DI1 A1000     -14.124   1.921 -49.824  1.00 35.22     0.256 C 
HETATM    2  N21 DI1 A1000     -15.444   2.014 -49.557  1.00 33.72    -0.323 N 
HETATM    3  H21 DI1 A1000     -15.780   2.916 -49.219  1.00  0.00     0.169 HD
HETATM    4  O40 DI1 A1000     -13.552   0.860 -50.017  1.00 34.16    -0.267 OA
HETATM    5  C13 DI1 A1000     -13.348   3.186 -49.749  1.00 33.40     0.033 A 
HETATM    6  C12 DI1 A1000     -13.459   4.133 -48.742  1.00 34.49    -0.067 A 
HETATM    7  C11 DI1 A1000     -12.742   5.309 -48.809  1.00 31.89    -0.073 A 
HETATM    8  H12 DI1 A1000     -14.125   3.944 -47.882  1.00  0.00     0.085 H 
HETATM    9  C10 DI1 A1000     -11.913   5.577 -49.888  1.00 31.19    -0.015 A 
HETATM   10  H11 DI1 A1000     -12.828   6.046 -47.992  1.00  0.00     0.084 H 
HETATM   11  C15 DI1 A1000     -11.823   4.643 -50.918  1.00 31.14     0.056 A 
HETATM   12  C14 DI1 A1000     -12.536   3.455 -50.840  1.00 32.40    -0.052 A 
HETATM   13  H14 DI1 A1000     -12.457   2.716 -51.655  1.00  0.00     0.086 H 
HETATM   14  C09 DI1 A1000     -11.081   6.835 -49.913  1.00 31.99     0.138 C 
HETATM   15 1H09 DI1 A1000     -11.724   7.746 -49.901  1.00  0.00     0.087 H 
HETATM   16 2H09 DI1 A1000     -10.593   6.977 -50.905  1.00  0.00     0.087 H 
HETATM   17  N06 DI1 A1000     -10.098   6.867 -48.831  1.00 31.70     0.096 N 
HETATM   18  C05 DI1 A1000     -10.251   8.063 -47.995  1.00 31.38     0.138 C 
HETATM   19 1H05 DI1 A1000     -10.183   9.000 -48.596  1.00  0.00     0.082 H 
HETATM   20 2H05 DI1 A1000     -11.294   8.179 -47.620  1.00  0.00     0.082 H 
HETATM   21  C04 DI1 A1000      -9.241   8.048 -46.859  1.00 30.37     0.138 C 
HETATM   22 1H04 DI1 A1000      -9.357   8.936 -46.193  1.00  0.00     0.082 H 
HETATM   23 2H04 DI1 A1000      -9.468   7.249 -46.116  1.00  0.00     0.082 H 
HETATM   24  N03 DI1 A1000      -7.876   7.934 -47.382  1.00 33.96     0.091 N 
HETATM   25  C08 DI1 A1000      -7.759   6.736 -48.220  1.00 32.34     0.138 C 
HETATM   26 1H08 DI1 A1000      -6.717   6.585 -48.583  1.00  0.00     0.082 H 
HETATM   27 2H08 DI1 A1000      -7.864   5.800 -47.622  1.00  0.00     0.082 H 
HETATM   28  C07 DI1 A1000      -8.736   6.787 -49.350  1.00 31.73     0.138 C 
HETATM   29 1H07 DI1 A1000      -8.609   5.930 -50.051  1.00  0.00     0.082 H 
HETATM   30 2H07 DI1 A1000      -8.512   7.617 -50.060  1.00  0.00     0.082 H 
HETATM   31  C02 DI1 A1000      -6.916   7.825 -46.286  1.00 36.77     0.110 C 
HETATM   32 1H02 DI1 A1000      -7.287   7.101 -45.524  1.00  0.00     0.079 H 
HETATM   33 2H02 DI1 A1000      -6.000   7.292 -46.635  1.00  0.00     0.079 H 
HETATM   34  C01 DI1 A1000      -6.541   9.096 -45.634  1.00 38.92    -0.051 C 
HETATM   35 1H01 DI1 A1000      -7.143   9.986 -45.929  1.00  0.00     0.029 H 
HETATM   36 2H01 DI1 A1000      -5.456   9.300 -45.795  1.00  0.00     0.029 H 
HETATM   37 3H01 DI1 A1000      -6.558   8.974 -44.526  1.00  0.00     0.029 H 
HETATM   38  C16 DI1 A1000     -10.945   4.854 -52.103  1.00 34.07     0.418 C 
HETATM   39  F19 DI1 A1000     -11.223   5.902 -52.731  1.00 32.66    -0.166 F 
HETATM   40  F17 DI1 A1000     -11.035   3.920 -52.938  1.00 35.34    -0.166 F 
HETATM   41  F18 DI1 A1000      -9.705   4.966 -51.802  1.00 34.55    -0.166 F 
HETATM   42  C22 DI1 A1000     -16.409   0.992 -49.694  1.00 30.76     0.037 A 
HETATM   43  C28 DI1 A1000     -16.471   0.304 -50.892  1.00 29.62    -0.024 A 
HETATM   44  C27 DI1 A1000     -17.434  -0.661 -51.084  1.00 29.96     0.085 A 
HETATM   45  H28 DI1 A1000     -15.747   0.527 -51.695  1.00  0.00     0.091 H 
HETATM   46  C25 DI1 A1000     -18.345  -0.983 -50.076  1.00 30.34    -0.020 A 
HETATM   47  C24 DI1 A1000     -18.231  -0.319 -48.867  1.00 31.32    -0.072 A 
HETATM   48  C23 DI1 A1000     -17.286   0.667 -48.674  1.00 30.63    -0.056 A 
HETATM   49  H24 DI1 A1000     -18.909  -0.584 -48.040  1.00  0.00     0.084 H 
HETATM   50  H23 DI1 A1000     -17.230   1.197 -47.708  1.00  0.00     0.086 H 
HETATM   51  O29 DI1 A1000     -17.471  -0.972 -52.402  1.00 30.38    -0.310 OA
HETATM   52  C30 DI1 A1000     -17.351  -0.214 -53.528  1.00 34.16     0.076 A 
HETATM   53  C39 DI1 A1000     -16.874  -0.771 -54.705  1.00 33.39    -0.041 A 
HETATM   54  C34 DI1 A1000     -17.057  -0.086 -55.890  1.00 31.98    -0.016 A 
HETATM   55  H39 DI1 A1000     -16.356  -1.747 -54.693  1.00  0.00     0.088 H 
HETATM   56  C33 DI1 A1000     -17.708   1.144 -55.880  1.00 33.51     0.042 A 
HETATM   57  C35 DI1 A1000     -16.664  -0.385 -57.301  1.00 32.48     0.051 A 
HETATM   58  C32 DI1 A1000     -18.175   1.694 -54.707  1.00 36.25    -0.054 A 
HETATM   59  N37 DI1 A1000     -17.754   1.647 -57.167  1.00 35.18    -0.326 N 
HETATM   60  C31 DI1 A1000     -17.978   1.014 -53.523  1.00 33.93    -0.048 A 
HETATM   61  H32 DI1 A1000     -18.700   2.664 -54.713  1.00  0.00     0.087 H 
HETATM   62  H31 DI1 A1000     -18.320   1.453 -52.571  1.00  0.00     0.087 H 
HETATM   63  C36 DI1 A1000     -17.177   0.803 -58.062  1.00 33.97     0.230 A 
HETATM   64  H37 DI1 A1000     -18.170   2.545 -57.414  1.00  0.00     0.169 HD
HETATM   65  O38 DI1 A1000     -17.113   0.993 -59.260  1.00 41.19    -0.272 OA
HETATM   66 1H35 DI1 A1000     -15.579  -0.592 -57.445  1.00  0.00     0.062 H 
HETATM   67  C3  DI1 A1000     -17.152  -1.731 -57.824  1.00  0.00    -0.049 C 
HETATM   68  H4  DI1 A1000     -18.204  -1.888 -58.014  1.00  0.00     0.034 H 
HETATM   69  H1  DI1 A1000     -16.446  -2.527 -58.006  1.00  0.00     0.034 H 
HETATM   70  C26 DI1 A1000     -19.423  -2.008 -50.286  1.00 31.24    -0.026 C 
HETATM   71 1H26 DI1 A1000     -20.095  -2.303 -49.447  1.00  0.00     0.047 H 
HETATM   72  C1  DI1 A1000     -18.778  -3.270 -50.847  1.00  0.00    -0.057 C 
HETATM   73  H1  DI1 A1000     -17.950  -3.193 -51.536  1.00  0.00     0.034 H 
HETATM   74  H2  DI1 A1000     -19.148  -4.242 -50.554  1.00  0.00     0.034 H 
HETATM   75  C2  DI1 A1000     -20.290  -1.557 -51.455  1.00  0.00    -0.057 C 
HETATM   76  H1  DI1 A1000     -21.025  -0.778 -51.314  1.00  0.00     0.034 H 
HETATM   77  H3  DI1 A1000     -20.171  -2.017 -52.425  1.00  0.00     0.034 H 
ENDMDL
