MODEL 1
REMARK VINA RESULT:     -11.2      0.000      0.000
REMARK  12 active torsions:
REMARK  status: ('A' for Active; 'I' for Inactive)
REMARK    1  A    between atoms: C13_1  and  C14_36 
REMARK    2  A    between atoms: C23_45  and  C24_13 
REMARK    3  A    between atoms: C01_16  and  C02_20 
REMARK    4  A    between atoms: C02_20  and  C04_26 
REMARK    5  A    between atoms: C02_20  and  C03_22 
REMARK    6  A    between atoms: C07_31  and  C08_32 
REMARK       I    between atoms: C08_32  and  N10_64 
REMARK    7  A    between atoms: C11_33  and  N10_64 
REMARK    8  A    between atoms: C14_36  and  N15_66 
REMARK    9  A    between atoms: C19_41  and  N18_67 
REMARK   10  A    between atoms: C30_48  and  C31_49 
REMARK   11  A    between atoms: C31_49  and  C32_50 
REMARK   12  A    between atoms: C32_50  and  C33_51 
ROOT
HETATM    1  C08 FEW A1001      -7.776   4.174 -40.609  1.00 31.05     0.256 C 
HETATM    2  N10 FEW A1001      -7.105   5.358 -40.076  1.00 29.50    -0.323 N 
ATOM      3  H10 FEW A1001      -7.599   6.249 -40.113  1.00  0.00     0.169 HD
HETATM    4  O09 FEW A1001      -7.280   3.117 -40.612  1.00 31.55    -0.267 OA
ENDROOT
BRANCH   1   5
HETATM    5  C07 FEW A1001      -9.181   4.363 -41.246  1.00 31.57     0.033 A 
HETATM    6  C06 FEW A1001      -9.677   5.647 -41.547  1.00 35.09    -0.067 A 
HETATM    7  C05 FEW A1001     -10.921   5.772 -42.132  1.00 33.02    -0.074 A 
ATOM      8  H06 FEW A1001      -9.079   6.544 -41.316  1.00  0.00     0.085 H 
HETATM    9  C04 FEW A1001     -11.643   4.658 -42.425  1.00 32.04    -0.036 A 
ATOM     10  H05 FEW A1001     -11.327   6.771 -42.362  1.00  0.00     0.084 H 
HETATM   11  C30 FEW A1001     -11.129   3.403 -42.137  1.00 32.43     0.025 A 
HETATM   12  C29 FEW A1001      -9.883   3.273 -41.543  1.00 30.36    -0.049 A 
ATOM     13  H29 FEW A1001      -9.477   2.272 -41.318  1.00  0.00     0.087 H 
BRANCH   9  14
HETATM   14  C02 FEW A1001     -13.063   4.773 -43.108  1.00 31.80    -0.034 C 
ATOM     15  H02 FEW A1001     -13.134   3.947 -43.854  1.00  0.00     0.046 H 
BRANCH  14  16
HETATM   16  C01 FEW A1001     -14.239   4.578 -42.100  1.00 33.22    -0.069 C 
ATOM     17 3H01 FEW A1001     -14.962   5.425 -42.161  1.00  0.00     0.028 H 
ATOM     18 2H01 FEW A1001     -14.907   3.745 -42.422  1.00  0.00     0.028 H 
ATOM     19 1H01 FEW A1001     -13.892   4.428 -41.051  1.00  0.00     0.028 H 
ENDBRANCH  14  16
BRANCH  14  20
HETATM   20  C03 FEW A1001     -13.185   6.108 -43.895  1.00 33.11    -0.069 C 
ATOM     21 3H03 FEW A1001     -12.182   6.556 -44.090  1.00  0.00     0.028 H 
ATOM     22 2H03 FEW A1001     -13.505   5.930 -44.948  1.00  0.00     0.028 H 
ATOM     23 1H03 FEW A1001     -13.860   6.834 -43.385  1.00  0.00     0.028 H 
ENDBRANCH  14  20
ENDBRANCH   9  14
BRANCH  11  24
HETATM   24  C31 FEW A1001     -11.896   2.143 -42.454  1.00 32.42    -0.059 C 
BRANCH  24  25
HETATM   25  C32 FEW A1001     -12.569   1.106 -42.736  1.00 30.82    -0.041 C 
BRANCH  25  26
HETATM   26  C33 FEW A1001     -13.418  -0.128 -43.097  1.00 30.93     0.110 A 
HETATM   27  C34 FEW A1001     -13.342  -0.870 -44.318  1.00 31.95     0.013 A 
HETATM   28  N35 FEW A1001     -14.218  -1.839 -44.221  1.00 34.31    -0.348 N 
ATOM     29  H34 FEW A1001     -12.676  -0.666 -45.173  1.00  0.00     0.116 H 
HETATM   30  C36 FEW A1001     -14.845  -1.743 -42.981  1.00 36.39     0.128 A 
ATOM     31  H35 FEW A1001     -14.409  -2.544 -44.932  1.00  0.00     0.167 HD
HETATM   32  C37 FEW A1001     -15.811  -2.511 -42.432  1.00 33.00     0.020 A 
HETATM   33  N41 FEW A1001     -14.358  -0.720 -42.315  1.00 35.21    -0.297 N 
HETATM   34  N38 FEW A1001     -16.292  -2.208 -41.138  1.00 37.11    -0.371 N 
ATOM     35  H37 FEW A1001     -16.222  -3.368 -42.989  1.00  0.00     0.117 H 
HETATM   36  C39 FEW A1001     -15.797  -1.177 -40.470  1.00 39.32    -0.008 A 
ATOM     37  H38 FEW A1001     -17.022  -2.784 -40.719  1.00  0.00     0.164 HD
HETATM   38  C40 FEW A1001     -14.835  -0.408 -41.013  1.00 35.45     0.002 A 
ATOM     39  H39 FEW A1001     -16.176  -0.947 -39.460  1.00  0.00     0.113 H 
ATOM     40  H40 FEW A1001     -14.424   0.451 -40.457  1.00  0.00     0.114 H 
ENDBRANCH  25  26
ENDBRANCH  24  25
ENDBRANCH  11  24
ENDBRANCH   1   5
BRANCH   2  41
HETATM   41  C11 FEW A1001      -5.748   5.336 -39.484  1.00 30.48     0.036 A 
HETATM   42  C28 FEW A1001      -4.864   4.259 -39.778  1.00 27.91    -0.042 A 
HETATM   43  C23 FEW A1001      -3.616   4.247 -39.261  1.00 31.00     0.050 A 
ATOM     44  H28 FEW A1001      -5.198   3.434 -40.430  1.00  0.00     0.088 H 
HETATM   45  C22 FEW A1001      -3.184   5.320 -38.438  1.00 28.35    -0.057 A 
HETATM   46  C13 FEW A1001      -4.043   6.389 -38.152  1.00 29.45    -0.023 A 
ATOM     47  H22 FEW A1001      -2.164   5.313 -38.021  1.00  0.00     0.086 H 
HETATM   48  C12 FEW A1001      -5.320   6.395 -38.701  1.00 31.33    -0.046 A 
ATOM     49  H12 FEW A1001      -5.994   7.247 -38.513  1.00  0.00     0.088 H 
BRANCH  43  50
HETATM   50  C24 FEW A1001      -2.707   3.092 -39.563  1.00 28.50     0.417 C 
HETATM   51  F27 FEW A1001      -3.406   1.879 -39.427  1.00 26.84    -0.166 F 
HETATM   52  F26 FEW A1001      -2.211   3.187 -40.818  1.00 29.95    -0.166 F 
HETATM   53  F25 FEW A1001      -1.646   3.119 -38.654  1.00 28.35    -0.166 F 
ENDBRANCH  43  50
BRANCH  46  54
HETATM   54  C14 FEW A1001      -3.539   7.569 -37.260  1.00 33.14    -0.032 C 
ATOM     55  H14 FEW A1001      -2.522   7.983 -37.372  1.00  0.00     0.103 H 
BRANCH  54  56
HETATM   56  N15 FEW A1001      -4.373   8.042 -36.378  1.00 41.22    -0.288 NA
HETATM   57  C16 FEW A1001      -4.071   7.695 -35.092  1.00 39.68     0.008 C 
HETATM   58  C17 FEW A1001      -5.328   7.910 -34.179  1.00 39.19     0.124 C 
ATOM     59 2H16 FEW A1001      -3.176   8.238 -34.710  1.00  0.00     0.059 H 
ATOM     60 1H16 FEW A1001      -3.672   6.656 -35.020  1.00  0.00     0.059 H 
HETATM   61  N18 FEW A1001      -6.014   9.059 -34.407  1.00 44.08     0.086 N 
ATOM     62 2H17 FEW A1001      -6.012   7.033 -34.253  1.00  0.00     0.081 H 
ATOM     63 1H17 FEW A1001      -5.038   7.842 -33.104  1.00  0.00     0.081 H 
HETATM   64  C20 FEW A1001      -5.506   9.949 -35.328  1.00 38.40     0.124 C 
HETATM   65  C21 FEW A1001      -4.655   9.350 -36.511  1.00 34.34     0.008 C 
ATOM     66 2H20 FEW A1001      -4.910  10.729 -34.800  1.00  0.00     0.081 H 
ATOM     67 1H20 FEW A1001      -6.335  10.568 -35.743  1.00  0.00     0.081 H 
ATOM     68 2H21 FEW A1001      -5.155   9.545 -37.488  1.00  0.00     0.059 H 
ATOM     69 1H21 FEW A1001      -3.719   9.939 -36.656  1.00  0.00     0.059 H 
BRANCH  61  70
HETATM   70  C19 FEW A1001      -6.249   9.654 -33.301  1.00 43.76     0.095 C 
ATOM     71 3H19 FEW A1001      -6.372  10.754 -33.436  1.00  0.00     0.071 H 
ATOM     72 2H19 FEW A1001      -7.268   9.424 -32.911  1.00  0.00     0.071 H 
ATOM     73 1H19 FEW A1001      -5.452   9.409 -32.561  1.00  0.00     0.071 H 
ENDBRANCH  61  70
ENDBRANCH  54  56
ENDBRANCH  46  54
ENDBRANCH   2  41
TORSDOF 12
ENDMDL
MODEL 2
REMARK VINA RESULT:      -9.2      3.463     12.583
REMARK  12 active torsions:
REMARK  status: ('A' for Active; 'I' for Inactive)
REMARK    1  A    between atoms: C13_1  and  C14_36 
REMARK    2  A    between atoms: C23_45  and  C24_13 
REMARK    3  A    between atoms: C01_16  and  C02_20 
REMARK    4  A    between atoms: C02_20  and  C04_26 
REMARK    5  A    between atoms: C02_20  and  C03_22 
REMARK    6  A    between atoms: C07_31  and  C08_32 
REMARK       I    between atoms: C08_32  and  N10_64 
REMARK    7  A    between atoms: C11_33  and  N10_64 
REMARK    8  A    between atoms: C14_36  and  N15_66 
REMARK    9  A    between atoms: C19_41  and  N18_67 
REMARK   10  A    between atoms: C30_48  and  C31_49 
REMARK   11  A    between atoms: C31_49  and  C32_50 
REMARK   12  A    between atoms: C32_50  and  C33_51 
ROOT
HETATM    1  C08 FEW A1001      -8.298   4.393 -40.968  1.00 31.05     0.256 C 
HETATM    2  N10 FEW A1001      -8.948   3.115 -41.252  1.00 29.50    -0.323 N 
ATOM      3  H10 FEW A1001      -8.429   2.258 -41.063  1.00  0.00     0.169 HD
HETATM    4  O09 FEW A1001      -8.817   5.420 -41.162  1.00 31.55    -0.267 OA
ENDROOT
BRANCH   1   5
HETATM    5  C07 FEW A1001      -6.835   4.359 -40.443  1.00 31.57     0.033 A 
HETATM    6  C06 FEW A1001      -5.933   3.362 -40.864  1.00 35.09    -0.067 A 
HETATM    7  C05 FEW A1001      -4.636   3.380 -40.393  1.00 33.02    -0.074 A 
ATOM      8  H06 FEW A1001      -6.260   2.575 -41.564  1.00  0.00     0.085 H 
HETATM    9  C04 FEW A1001      -4.241   4.364 -39.543  1.00 32.04    -0.036 A 
ATOM     10  H05 FEW A1001      -3.923   2.598 -40.705  1.00  0.00     0.084 H 
HETATM   11  C30 FEW A1001      -5.140   5.346 -39.154  1.00 32.43     0.025 A 
HETATM   12  C29 FEW A1001      -6.446   5.329 -39.620  1.00 30.36    -0.049 A 
ATOM     13  H29 FEW A1001      -7.156   6.113 -39.311  1.00  0.00     0.087 H 
BRANCH   9  14
HETATM   14  C02 FEW A1001      -2.759   4.415 -38.999  1.00 31.80    -0.034 C 
ATOM     15  H02 FEW A1001      -2.498   5.491 -38.862  1.00  0.00     0.046 H 
BRANCH  14  16
HETATM   16  C01 FEW A1001      -2.598   3.725 -37.607  1.00 33.22    -0.069 C 
ATOM     17 3H01 FEW A1001      -1.831   2.917 -37.649  1.00  0.00     0.028 H 
ATOM     18 2H01 FEW A1001      -2.103   4.409 -36.878  1.00  0.00     0.028 H 
ATOM     19 1H01 FEW A1001      -3.561   3.339 -37.201  1.00  0.00     0.028 H 
ENDBRANCH  14  16
BRANCH  14  20
HETATM   20  C03 FEW A1001      -1.770   3.840 -40.053  1.00 33.11    -0.069 C 
ATOM     21 3H03 FEW A1001      -2.157   2.893 -40.497  1.00  0.00     0.028 H 
ATOM     22 2H03 FEW A1001      -1.748   4.469 -40.973  1.00  0.00     0.028 H 
ATOM     23 1H03 FEW A1001      -0.746   3.701 -39.633  1.00  0.00     0.028 H 
ENDBRANCH  14  20
ENDBRANCH   9  14
BRANCH  11  24
HETATM   24  C31 FEW A1001      -4.738   6.460 -38.219  1.00 32.42    -0.059 C 
BRANCH  24  25
HETATM   25  C32 FEW A1001      -4.439   7.396 -37.418  1.00 30.82    -0.041 C 
BRANCH  25  26
HETATM   26  C33 FEW A1001      -4.116   8.538 -36.436  1.00 30.93     0.110 A 
HETATM   27  C34 FEW A1001      -4.966   9.649 -36.134  1.00 31.95     0.013 A 
HETATM   28  N35 FEW A1001      -4.327  10.379 -35.253  1.00 34.31    -0.348 N 
ATOM     29  H34 FEW A1001      -5.963   9.851 -36.560  1.00  0.00     0.116 H 
HETATM   30  C36 FEW A1001      -3.105   9.770 -34.980  1.00 36.39     0.128 A 
ATOM     31  H35 FEW A1001      -4.668  11.245 -34.837  1.00  0.00     0.167 HD
HETATM   32  C37 FEW A1001      -2.111  10.147 -34.146  1.00 33.00     0.020 A 
HETATM   33  N41 FEW A1001      -2.989   8.670 -35.689  1.00 35.21    -0.297 N 
HETATM   34  N38 FEW A1001      -0.950   9.349 -34.040  1.00 37.11    -0.371 N 
ATOM     35  H37 FEW A1001      -2.206  11.070 -33.552  1.00  0.00     0.117 H 
HETATM   36  C39 FEW A1001      -0.838   8.240 -34.755  1.00 39.32    -0.008 A 
ATOM     37  H38 FEW A1001      -0.197   9.629 -33.412  1.00  0.00     0.164 HD
HETATM   38  C40 FEW A1001      -1.824   7.861 -35.588  1.00 35.45     0.002 A 
ATOM     39  H39 FEW A1001       0.071   7.622 -34.666  1.00  0.00     0.113 H 
ATOM     40  H40 FEW A1001      -1.731   6.937 -36.184  1.00  0.00     0.114 H 
ENDBRANCH  25  26
ENDBRANCH  24  25
ENDBRANCH  11  24
ENDBRANCH   1   5
BRANCH   2  41
HETATM   41  C11 FEW A1001     -10.319   2.996 -41.799  1.00 30.48     0.036 A 
HETATM   42  C28 FEW A1001     -11.066   4.170 -42.103  1.00 27.91    -0.042 A 
HETATM   43  C23 FEW A1001     -12.307   4.066 -42.625  1.00 31.00     0.050 A 
ATOM     44  H28 FEW A1001     -10.630   5.165 -41.911  1.00  0.00     0.088 H 
HETATM   45  C22 FEW A1001     -12.856   2.784 -42.887  1.00 28.35    -0.057 A 
HETATM   46  C13 FEW A1001     -12.126   1.624 -42.602  1.00 29.45    -0.023 A 
ATOM     47  H22 FEW A1001     -13.867   2.701 -43.319  1.00  0.00     0.086 H 
HETATM   48  C12 FEW A1001     -10.845   1.745 -42.077  1.00 31.33    -0.046 A 
ATOM     49  H12 FEW A1001     -10.244   0.841 -41.881  1.00  0.00     0.088 H 
BRANCH  43  50
HETATM   50  C24 FEW A1001     -13.088   5.314 -42.917  1.00 28.50     0.417 C 
HETATM   51  F27 FEW A1001     -12.330   6.449 -42.571  1.00 26.84    -0.166 F 
HETATM   52  F26 FEW A1001     -13.420   5.379 -44.227  1.00 29.95    -0.166 F 
HETATM   53  F25 FEW A1001     -14.258   5.289 -42.154  1.00 28.35    -0.166 F 
ENDBRANCH  43  50
BRANCH  46  54
HETATM   54  C14 FEW A1001     -12.743   0.223 -42.918  1.00 33.14    -0.032 C 
ATOM     55  H14 FEW A1001     -12.480  -0.329 -43.836  1.00  0.00     0.103 H 
BRANCH  54  56
HETATM   56  N15 FEW A1001     -13.583  -0.262 -42.048  1.00 41.22    -0.288 NA
HETATM   57  C16 FEW A1001     -14.687   0.518 -41.854  1.00 39.68     0.008 C 
HETATM   58  C17 FEW A1001     -15.392   0.110 -40.514  1.00 39.19     0.124 C 
ATOM     59 2H16 FEW A1001     -15.385   0.483 -42.723  1.00  0.00     0.059 H 
ATOM     60 1H16 FEW A1001     -14.444   1.606 -41.887  1.00  0.00     0.059 H 
HETATM   61  N18 FEW A1001     -15.484  -1.227 -40.297  1.00 44.08     0.086 N 
ATOM     62 2H17 FEW A1001     -14.892   0.606 -39.650  1.00  0.00     0.081 H 
ATOM     63 1H17 FEW A1001     -16.401   0.580 -40.451  1.00  0.00     0.081 H 
HETATM   64  C20 FEW A1001     -15.047  -2.079 -41.288  1.00 38.40     0.124 C 
HETATM   65  C21 FEW A1001     -13.888  -1.560 -42.220  1.00 34.34     0.008 C 
ATOM     66 2H20 FEW A1001     -15.914  -2.396 -41.913  1.00  0.00     0.081 H 
ATOM     67 1H20 FEW A1001     -14.751  -3.054 -40.835  1.00  0.00     0.081 H 
ATOM     68 2H21 FEW A1001     -12.979  -2.195 -42.101  1.00  0.00     0.059 H 
ATOM     69 1H21 FEW A1001     -14.125  -1.768 -43.290  1.00  0.00     0.059 H 
BRANCH  61  70
HETATM   70  C19 FEW A1001     -16.674  -1.531 -39.946  1.00 43.76     0.095 C 
ATOM     71 3H19 FEW A1001     -17.211  -2.102 -40.739  1.00  0.00     0.071 H 
ATOM     72 2H19 FEW A1001     -16.688  -2.310 -39.148  1.00  0.00     0.071 H 
ATOM     73 1H19 FEW A1001     -17.228  -0.613 -39.643  1.00  0.00     0.071 H 
ENDBRANCH  61  70
ENDBRANCH  54  56
ENDBRANCH  46  54
ENDBRANCH   2  41
TORSDOF 12
ENDMDL
MODEL 3
REMARK VINA RESULT:      -9.0      6.738     11.584
REMARK  12 active torsions:
REMARK  status: ('A' for Active; 'I' for Inactive)
REMARK    1  A    between atoms: C13_1  and  C14_36 
REMARK    2  A    between atoms: C23_45  and  C24_13 
REMARK    3  A    between atoms: C01_16  and  C02_20 
REMARK    4  A    between atoms: C02_20  and  C04_26 
REMARK    5  A    between atoms: C02_20  and  C03_22 
REMARK    6  A    between atoms: C07_31  and  C08_32 
REMARK       I    between atoms: C08_32  and  N10_64 
REMARK    7  A    between atoms: C11_33  and  N10_64 
REMARK    8  A    between atoms: C14_36  and  N15_66 
REMARK    9  A    between atoms: C19_41  and  N18_67 
REMARK   10  A    between atoms: C30_48  and  C31_49 
REMARK   11  A    between atoms: C31_49  and  C32_50 
REMARK   12  A    between atoms: C32_50  and  C33_51 
ROOT
HETATM    1  C08 FEW A1001      -5.296   6.564 -32.669  1.00 31.05     0.256 C 
HETATM    2  N10 FEW A1001      -4.043   6.971 -33.301  1.00 29.50    -0.323 N 
ATOM      3  H10 FEW A1001      -3.168   6.714 -32.846  1.00  0.00     0.169 HD
HETATM    4  O09 FEW A1001      -6.342   6.822 -33.119  1.00 31.55    -0.267 OA
ENDROOT
BRANCH   1   5
HETATM    5  C07 FEW A1001      -5.211   5.808 -31.314  1.00 31.57     0.033 A 
HETATM    6  C06 FEW A1001      -3.990   5.695 -30.619  1.00 35.09    -0.067 A 
HETATM    7  C05 FEW A1001      -3.959   5.035 -29.407  1.00 33.02    -0.074 A 
ATOM      8  H06 FEW A1001      -3.068   6.129 -31.039  1.00  0.00     0.085 H 
HETATM    9  C04 FEW A1001      -5.105   4.517 -28.893  1.00 32.04    -0.036 A 
ATOM     10  H05 FEW A1001      -3.008   4.928 -28.859  1.00  0.00     0.084 H 
HETATM   11  C30 FEW A1001      -6.300   4.653 -29.584  1.00 32.43     0.025 A 
HETATM   12  C29 FEW A1001      -6.334   5.310 -30.805  1.00 30.36    -0.049 A 
ATOM     13  H29 FEW A1001      -7.287   5.420 -31.350  1.00  0.00     0.087 H 
BRANCH   9  14
HETATM   14  C02 FEW A1001      -5.100   3.768 -27.501  1.00 31.80    -0.034 C 
ATOM     15  H02 FEW A1001      -5.878   2.971 -27.557  1.00  0.00     0.046 H 
BRANCH  14  16
HETATM   16  C01 FEW A1001      -3.742   3.060 -27.197  1.00 33.22    -0.069 C 
ATOM     17 3H01 FEW A1001      -2.914   3.513 -27.791  1.00  0.00     0.028 H 
ATOM     18 2H01 FEW A1001      -3.384   3.307 -26.170  1.00  0.00     0.028 H 
ATOM     19 1H01 FEW A1001      -3.784   1.957 -27.351  1.00  0.00     0.028 H 
ENDBRANCH  14  16
BRANCH  14  20
HETATM   20  C03 FEW A1001      -5.522   4.735 -26.359  1.00 33.11    -0.069 C 
ATOM     21 3H03 FEW A1001      -4.708   4.851 -25.605  1.00  0.00     0.028 H 
ATOM     22 2H03 FEW A1001      -5.578   5.789 -26.720  1.00  0.00     0.028 H 
ATOM     23 1H03 FEW A1001      -6.477   4.422 -25.877  1.00  0.00     0.028 H 
ENDBRANCH  14  20
ENDBRANCH   9  14
BRANCH  11  24
HETATM   24  C31 FEW A1001      -7.595   4.100 -29.042  1.00 32.42    -0.059 C 
BRANCH  24  25
HETATM   25  C32 FEW A1001      -8.698   3.635 -28.625  1.00 30.82    -0.041 C 
BRANCH  25  26
HETATM   26  C33 FEW A1001     -10.054   3.110 -28.115  1.00 30.93     0.110 A 
HETATM   27  C34 FEW A1001     -10.674   3.460 -26.874  1.00 31.95     0.013 A 
HETATM   28  N35 FEW A1001     -11.809   2.808 -26.828  1.00 34.31    -0.348 N 
ATOM     29  H34 FEW A1001     -10.275   4.145 -26.107  1.00  0.00     0.116 H 
HETATM   30  C36 FEW A1001     -11.935   2.060 -27.996  1.00 36.39     0.128 A 
ATOM     31  H35 FEW A1001     -12.486   2.842 -26.066  1.00  0.00     0.167 HD
HETATM   32  C37 FEW A1001     -12.925   1.234 -28.398  1.00 33.00     0.020 A 
HETATM   33  N41 FEW A1001     -10.883   2.249 -28.760  1.00 35.21    -0.297 N 
HETATM   34  N38 FEW A1001     -12.822   0.578 -29.645  1.00 37.11    -0.371 N 
ATOM     35  H37 FEW A1001     -13.808   1.072 -27.758  1.00  0.00     0.117 H 
HETATM   36  C39 FEW A1001     -11.761   0.774 -30.414  1.00 39.32    -0.008 A 
ATOM     37  H38 FEW A1001     -13.567  -0.047 -29.954  1.00  0.00     0.164 HD
HETATM   38  C40 FEW A1001     -10.771   1.594 -30.016  1.00 35.45     0.002 A 
ATOM     39  H39 FEW A1001     -11.689   0.259 -31.387  1.00  0.00     0.113 H 
ATOM     40  H40 FEW A1001      -9.887   1.756 -30.656  1.00  0.00     0.114 H 
ENDBRANCH  25  26
ENDBRANCH  24  25
ENDBRANCH  11  24
ENDBRANCH   1   5
BRANCH   2  41
HETATM   41  C11 FEW A1001      -3.974   7.737 -34.567  1.00 30.48     0.036 A 
HETATM   42  C28 FEW A1001      -4.192   9.144 -34.557  1.00 27.91    -0.042 A 
HETATM   43  C23 FEW A1001      -4.105   9.850 -35.706  1.00 31.00     0.050 A 
ATOM     44  H28 FEW A1001      -4.432   9.658 -33.611  1.00  0.00     0.088 H 
HETATM   45  C22 FEW A1001      -3.778   9.187 -36.917  1.00 28.35    -0.057 A 
HETATM   46  C13 FEW A1001      -3.552   7.805 -36.935  1.00 29.45    -0.023 A 
ATOM     47  H22 FEW A1001      -3.702   9.766 -37.853  1.00  0.00     0.086 H 
HETATM   48  C12 FEW A1001      -3.631   7.093 -35.745  1.00 31.33    -0.046 A 
ATOM     49  H12 FEW A1001      -3.420   6.010 -35.737  1.00  0.00     0.088 H 
BRANCH  43  50
HETATM   50  C24 FEW A1001      -4.361  11.329 -35.679  1.00 28.50     0.417 C 
HETATM   51  F27 FEW A1001      -5.740  11.582 -35.801  1.00 26.84    -0.166 F 
HETATM   52  F26 FEW A1001      -3.904  11.876 -34.530  1.00 29.95    -0.166 F 
HETATM   53  F25 FEW A1001      -3.687  11.910 -36.757  1.00 28.35    -0.166 F 
ENDBRANCH  43  50
BRANCH  46  54
HETATM   54  C14 FEW A1001      -3.173   7.101 -38.278  1.00 33.14    -0.032 C 
ATOM     55  H14 FEW A1001      -2.257   7.369 -38.831  1.00  0.00     0.103 H 
BRANCH  54  56
HETATM   56  N15 FEW A1001      -3.988   6.183 -38.714  1.00 41.22    -0.288 NA
HETATM   57  C16 FEW A1001      -5.058   6.678 -39.402  1.00 39.68     0.008 C 
HETATM   58  C17 FEW A1001      -6.180   5.585 -39.490  1.00 39.19     0.124 C 
ATOM     59 2H16 FEW A1001      -4.769   7.064 -40.407  1.00  0.00     0.059 H 
ATOM     60 1H16 FEW A1001      -5.434   7.632 -38.965  1.00  0.00     0.059 H 
HETATM   61  N18 FEW A1001      -5.741   4.331 -39.769  1.00 44.08     0.086 N 
ATOM     62 2H17 FEW A1001      -6.787   5.581 -38.555  1.00  0.00     0.081 H 
ATOM     63 1H17 FEW A1001      -6.959   5.893 -40.227  1.00  0.00     0.081 H 
HETATM   64  C20 FEW A1001      -4.400   4.155 -40.034  1.00 38.40     0.124 C 
HETATM   65  C21 FEW A1001      -3.395   5.153 -39.344  1.00 34.34     0.008 C 
ATOM     66 2H20 FEW A1001      -4.235   4.165 -41.136  1.00  0.00     0.081 H 
ATOM     67 1H20 FEW A1001      -4.109   3.107 -39.790  1.00  0.00     0.081 H 
ATOM     68 2H21 FEW A1001      -2.718   4.606 -38.648  1.00  0.00     0.059 H 
ATOM     69 1H21 FEW A1001      -2.647   5.526 -40.082  1.00  0.00     0.059 H 
BRANCH  61  70
HETATM   70  C19 FEW A1001      -6.446   3.819 -40.702  1.00 43.76     0.095 C 
ATOM     71 3H19 FEW A1001      -6.671   4.556 -41.509  1.00  0.00     0.071 H 
ATOM     72 2H19 FEW A1001      -5.867   3.085 -41.309  1.00  0.00     0.071 H 
ATOM     73 1H19 FEW A1001      -7.373   3.370 -40.276  1.00  0.00     0.071 H 
ENDBRANCH  61  70
ENDBRANCH  54  56
ENDBRANCH  46  54
ENDBRANCH   2  41
TORSDOF 12
ENDMDL
MODEL 4
REMARK VINA RESULT:      -8.7      7.826     11.694
REMARK  12 active torsions:
REMARK  status: ('A' for Active; 'I' for Inactive)
REMARK    1  A    between atoms: C13_1  and  C14_36 
REMARK    2  A    between atoms: C23_45  and  C24_13 
REMARK    3  A    between atoms: C01_16  and  C02_20 
REMARK    4  A    between atoms: C02_20  and  C04_26 
REMARK    5  A    between atoms: C02_20  and  C03_22 
REMARK    6  A    between atoms: C07_31  and  C08_32 
REMARK       I    between atoms: C08_32  and  N10_64 
REMARK    7  A    between atoms: C11_33  and  N10_64 
REMARK    8  A    between atoms: C14_36  and  N15_66 
REMARK    9  A    between atoms: C19_41  and  N18_67 
REMARK   10  A    between atoms: C30_48  and  C31_49 
REMARK   11  A    between atoms: C31_49  and  C32_50 
REMARK   12  A    between atoms: C32_50  and  C33_51 
ROOT
HETATM    1  C08 FEW A1001      -3.315   6.661 -32.683  1.00 31.05     0.256 C 
HETATM    2  N10 FEW A1001      -2.157   6.105 -33.381  1.00 29.50    -0.323 N 
ATOM      3  H10 FEW A1001      -1.672   5.316 -32.955  1.00  0.00     0.169 HD
HETATM    4  O09 FEW A1001      -3.923   7.568 -33.095  1.00 31.55    -0.267 OA
ENDROOT
BRANCH   1   5
HETATM    5  C07 FEW A1001      -3.698   6.043 -31.310  1.00 31.57     0.033 A 
HETATM    6  C06 FEW A1001      -2.877   6.217 -30.178  1.00 35.09    -0.067 A 
HETATM    7  C05 FEW A1001      -3.263   5.671 -28.970  1.00 33.02    -0.074 A 
ATOM      8  H06 FEW A1001      -1.935   6.785 -30.255  1.00  0.00     0.085 H 
HETATM    9  C04 FEW A1001      -4.433   4.987 -28.884  1.00 32.04    -0.036 A 
ATOM     10  H05 FEW A1001      -2.623   5.790 -28.079  1.00  0.00     0.084 H 
HETATM   11  C30 FEW A1001      -5.236   4.840 -30.005  1.00 32.43     0.025 A 
HETATM   12  C29 FEW A1001      -4.849   5.382 -31.222  1.00 30.36    -0.049 A 
ATOM     13  H29 FEW A1001      -5.491   5.266 -32.111  1.00  0.00     0.087 H 
BRANCH   9  14
HETATM   14  C02 FEW A1001      -4.905   4.363 -27.511  1.00 31.80    -0.034 C 
ATOM     15  H02 FEW A1001      -5.695   3.612 -27.748  1.00  0.00     0.046 H 
BRANCH  14  16
HETATM   16  C01 FEW A1001      -3.763   3.603 -26.765  1.00 33.22    -0.069 C 
ATOM     17 3H01 FEW A1001      -3.187   4.294 -26.107  1.00  0.00     0.028 H 
ATOM     18 2H01 FEW A1001      -4.179   2.918 -25.989  1.00  0.00     0.028 H 
ATOM     19 1H01 FEW A1001      -3.083   3.054 -27.457  1.00  0.00     0.028 H 
ENDBRANCH  14  16
BRANCH  14  20
HETATM   20  C03 FEW A1001      -5.564   5.449 -26.615  1.00 33.11    -0.069 C 
ATOM     21 3H03 FEW A1001      -6.338   5.006 -25.945  1.00  0.00     0.028 H 
ATOM     22 2H03 FEW A1001      -4.854   5.820 -25.840  1.00  0.00     0.028 H 
ATOM     23 1H03 FEW A1001      -5.982   6.290 -27.216  1.00  0.00     0.028 H 
ENDBRANCH  14  20
ENDBRANCH   9  14
BRANCH  11  24
HETATM   24  C31 FEW A1001      -6.546   4.094 -29.949  1.00 32.42    -0.059 C 
BRANCH  24  25
HETATM   25  C32 FEW A1001      -7.665   3.502 -29.889  1.00 30.82    -0.041 C 
BRANCH  25  26
HETATM   26  C33 FEW A1001      -9.032   2.799 -29.778  1.00 30.93     0.110 A 
HETATM   27  C34 FEW A1001      -9.596   1.906 -30.742  1.00 31.95     0.013 A 
HETATM   28  N35 FEW A1001     -10.756   1.527 -30.266  1.00 34.31    -0.348 N 
ATOM     29  H34 FEW A1001      -9.143   1.597 -31.699  1.00  0.00     0.116 H 
HETATM   30  C36 FEW A1001     -10.948   2.143 -29.032  1.00 36.39     0.128 A 
ATOM     31  H35 FEW A1001     -11.408   0.889 -30.722  1.00  0.00     0.167 HD
HETATM   32  C37 FEW A1001     -11.985   2.062 -28.170  1.00 33.00     0.020 A 
HETATM   33  N41 FEW A1001      -9.911   2.899 -28.747  1.00 35.21    -0.297 N 
HETATM   34  N38 FEW A1001     -11.946   2.793 -26.961  1.00 37.11    -0.371 N 
ATOM     35  H37 FEW A1001     -12.856   1.430 -28.408  1.00  0.00     0.117 H 
HETATM   36  C39 FEW A1001     -10.898   3.551 -26.677  1.00 39.32    -0.008 A 
ATOM     37  H38 FEW A1001     -12.726   2.736 -26.307  1.00  0.00     0.164 HD
HETATM   38  C40 FEW A1001      -9.863   3.637 -27.533  1.00 35.45     0.002 A 
ATOM     39  H39 FEW A1001     -10.874   4.118 -25.731  1.00  0.00     0.113 H 
ATOM     40  H40 FEW A1001      -8.991   4.269 -27.297  1.00  0.00     0.114 H 
ENDBRANCH  25  26
ENDBRANCH  24  25
ENDBRANCH  11  24
ENDBRANCH   1   5
BRANCH   2  41
HETATM   41  C11 FEW A1001      -1.650   6.624 -34.672  1.00 30.48     0.036 A 
HETATM   42  C28 FEW A1001      -0.428   7.354 -34.711  1.00 27.91    -0.042 A 
HETATM   43  C23 FEW A1001       0.052   7.808 -35.890  1.00 31.00     0.050 A 
ATOM     44  H28 FEW A1001       0.128   7.549 -33.779  1.00  0.00     0.088 H 
HETATM   45  C22 FEW A1001      -0.658   7.538 -37.090  1.00 28.35    -0.057 A 
HETATM   46  C13 FEW A1001      -1.855   6.812 -37.061  1.00 29.45    -0.023 A 
ATOM     47  H22 FEW A1001      -0.263   7.904 -38.052  1.00  0.00     0.086 H 
HETATM   48  C12 FEW A1001      -2.331   6.340 -35.844  1.00 31.33    -0.046 A 
ATOM     49  H12 FEW A1001      -3.253   5.736 -35.811  1.00  0.00     0.088 H 
BRANCH  43  50
HETATM   50  C24 FEW A1001       1.329   8.595 -35.909  1.00 28.50     0.417 C 
HETATM   51  F27 FEW A1001       2.424   7.732 -36.103  1.00 26.84    -0.166 F 
HETATM   52  F26 FEW A1001       1.308   9.522 -36.894  1.00 29.95    -0.166 F 
HETATM   53  F25 FEW A1001       1.463   9.244 -34.679  1.00 28.35    -0.166 F 
ENDBRANCH  43  50
BRANCH  46  54
HETATM   54  C14 FEW A1001      -2.608   6.510 -38.398  1.00 33.14    -0.032 C 
ATOM     55  H14 FEW A1001      -3.002   7.321 -39.034  1.00  0.00     0.103 H 
BRANCH  54  56
HETATM   56  N15 FEW A1001      -2.750   5.257 -38.725  1.00 41.22    -0.288 NA
HETATM   57  C16 FEW A1001      -3.686   5.044 -39.696  1.00 39.68     0.008 C 
HETATM   58  C17 FEW A1001      -4.103   3.532 -39.704  1.00 39.19     0.124 C 
ATOM     59 2H16 FEW A1001      -3.338   5.389 -40.698  1.00  0.00     0.059 H 
ATOM     60 1H16 FEW A1001      -4.565   5.723 -39.589  1.00  0.00     0.059 H 
HETATM   61  N18 FEW A1001      -3.078   2.652 -39.574  1.00 44.08     0.086 N 
ATOM     62 2H17 FEW A1001      -4.875   3.343 -38.922  1.00  0.00     0.081 H 
ATOM     63 1H17 FEW A1001      -4.695   3.301 -40.621  1.00  0.00     0.081 H 
HETATM   64  C20 FEW A1001      -1.794   3.150 -39.542  1.00 38.40     0.124 C 
HETATM   65  C21 FEW A1001      -1.600   4.600 -38.959  1.00 34.34     0.008 C 
ATOM     66 2H20 FEW A1001      -1.350   3.097 -40.563  1.00  0.00     0.081 H 
ATOM     67 1H20 FEW A1001      -1.134   2.438 -38.993  1.00  0.00     0.081 H 
ATOM     68 2H21 FEW A1001      -0.973   4.570 -38.038  1.00  0.00     0.059 H 
ATOM     69 1H21 FEW A1001      -0.934   5.201 -39.622  1.00  0.00     0.059 H 
BRANCH  61  70
HETATM   70  C19 FEW A1001      -3.175   1.735 -40.457  1.00 43.76     0.095 C 
ATOM     71 3H19 FEW A1001      -2.433   0.918 -40.295  1.00  0.00     0.071 H 
ATOM     72 2H19 FEW A1001      -4.107   1.135 -40.337  1.00  0.00     0.071 H 
ATOM     73 1H19 FEW A1001      -3.092   2.179 -41.477  1.00  0.00     0.071 H 
ENDBRANCH  61  70
ENDBRANCH  54  56
ENDBRANCH  46  54
ENDBRANCH   2  41
TORSDOF 12
ENDMDL
MODEL 5
REMARK VINA RESULT:      -8.4      8.634     14.061
REMARK  12 active torsions:
REMARK  status: ('A' for Active; 'I' for Inactive)
REMARK    1  A    between atoms: C13_1  and  C14_36 
REMARK    2  A    between atoms: C23_45  and  C24_13 
REMARK    3  A    between atoms: C01_16  and  C02_20 
REMARK    4  A    between atoms: C02_20  and  C04_26 
REMARK    5  A    between atoms: C02_20  and  C03_22 
REMARK    6  A    between atoms: C07_31  and  C08_32 
REMARK       I    between atoms: C08_32  and  N10_64 
REMARK    7  A    between atoms: C11_33  and  N10_64 
REMARK    8  A    between atoms: C14_36  and  N15_66 
REMARK    9  A    between atoms: C19_41  and  N18_67 
REMARK   10  A    between atoms: C30_48  and  C31_49 
REMARK   11  A    between atoms: C31_49  and  C32_50 
REMARK   12  A    between atoms: C32_50  and  C33_51 
ROOT
HETATM    1  C08 FEW A1001      -4.529   8.115 -35.628  1.00 31.05     0.256 C 
HETATM    2  N10 FEW A1001      -5.165   7.359 -34.550  1.00 29.50    -0.323 N 
ATOM      3  H10 FEW A1001      -4.786   6.443 -34.315  1.00  0.00     0.169 HD
HETATM    4  O09 FEW A1001      -4.904   9.167 -35.965  1.00 31.55    -0.267 OA
ENDROOT
BRANCH   1   5
HETATM    5  C07 FEW A1001      -3.345   7.446 -36.379  1.00 31.57     0.033 A 
HETATM    6  C06 FEW A1001      -3.570   6.497 -37.396  1.00 35.09    -0.067 A 
HETATM    7  C05 FEW A1001      -2.492   5.941 -38.056  1.00 33.02    -0.074 A 
ATOM      8  H06 FEW A1001      -4.598   6.200 -37.663  1.00  0.00     0.085 H 
HETATM    9  C04 FEW A1001      -1.231   6.326 -37.728  1.00 32.04    -0.036 A 
ATOM     10  H05 FEW A1001      -2.655   5.189 -38.846  1.00  0.00     0.084 H 
HETATM   11  C30 FEW A1001      -1.030   7.274 -36.736  1.00 32.43     0.025 A 
HETATM   12  C29 FEW A1001      -2.110   7.830 -36.066  1.00 30.36    -0.049 A 
ATOM     13  H29 FEW A1001      -1.947   8.586 -35.280  1.00  0.00     0.087 H 
BRANCH   9  14
HETATM   14  C02 FEW A1001       0.020   5.715 -38.477  1.00 31.80    -0.034 C 
ATOM     15  H02 FEW A1001       0.885   6.388 -38.267  1.00  0.00     0.046 H 
BRANCH  14  16
HETATM   16  C01 FEW A1001       0.407   4.296 -37.954  1.00 33.22    -0.069 C 
ATOM     17 3H01 FEW A1001       0.136   4.180 -36.879  1.00  0.00     0.028 H 
ATOM     18 2H01 FEW A1001      -0.255   3.514 -38.394  1.00  0.00     0.028 H 
ATOM     19 1H01 FEW A1001       1.481   4.050 -38.122  1.00  0.00     0.028 H 
ENDBRANCH  14  16
BRANCH  14  20
HETATM   20  C03 FEW A1001      -0.204   5.729 -40.015  1.00 33.11    -0.069 C 
ATOM     21 3H03 FEW A1001       0.500   6.430 -40.520  1.00  0.00     0.028 H 
ATOM     22 2H03 FEW A1001       0.134   4.774 -40.482  1.00  0.00     0.028 H 
ATOM     23 1H03 FEW A1001      -1.263   5.957 -40.282  1.00  0.00     0.028 H 
ENDBRANCH  14  20
ENDBRANCH   9  14
BRANCH  11  24
HETATM   24  C31 FEW A1001       0.354   7.733 -36.348  1.00 32.42    -0.059 C 
BRANCH  24  25
HETATM   25  C32 FEW A1001       1.512   8.150 -36.048  1.00 30.82    -0.041 C 
BRANCH  25  26
HETATM   26  C33 FEW A1001       2.904   8.697 -35.675  1.00 30.93     0.110 A 
HETATM   27  C34 FEW A1001       3.913   7.991 -34.947  1.00 31.95     0.013 A 
HETATM   28  N35 FEW A1001       4.938   8.802 -34.850  1.00 34.31    -0.348 N 
ATOM     29  H34 FEW A1001       3.842   6.967 -34.546  1.00  0.00     0.116 H 
HETATM   30  C36 FEW A1001       4.619   9.994 -35.494  1.00 36.39     0.128 A 
ATOM     31  H35 FEW A1001       5.820   8.594 -34.383  1.00  0.00     0.167 HD
HETATM   32  C37 FEW A1001       5.349  11.119 -35.656  1.00 33.00     0.020 A 
HETATM   33  N41 FEW A1001       3.402   9.921 -35.986  1.00 35.21    -0.297 N 
HETATM   34  N38 FEW A1001       4.797  12.214 -36.358  1.00 37.11    -0.371 N 
ATOM     35  H37 FEW A1001       6.369  11.183 -35.242  1.00  0.00     0.117 H 
HETATM   36  C39 FEW A1001       3.572  12.135 -36.855  1.00 39.32    -0.008 A 
ATOM     37  H38 FEW A1001       5.344  13.065 -36.483  1.00  0.00     0.164 HD
HETATM   38  C40 FEW A1001       2.839  11.017 -36.695  1.00 35.45     0.002 A 
ATOM     39  H39 FEW A1001       3.148  12.993 -37.404  1.00  0.00     0.113 H 
ATOM     40  H40 FEW A1001       1.819  10.952 -37.107  1.00  0.00     0.114 H 
ENDBRANCH  25  26
ENDBRANCH  24  25
ENDBRANCH  11  24
ENDBRANCH   1   5
BRANCH   2  41
HETATM   41  C11 FEW A1001      -6.331   7.852 -33.780  1.00 30.48     0.036 A 
HETATM   42  C28 FEW A1001      -6.448   7.540 -32.396  1.00 27.91    -0.042 A 
HETATM   43  C23 FEW A1001      -7.496   8.008 -31.683  1.00 31.00     0.050 A 
ATOM     44  H28 FEW A1001      -5.682   6.917 -31.904  1.00  0.00     0.088 H 
HETATM   45  C22 FEW A1001      -8.469   8.825 -32.316  1.00 28.35    -0.057 A 
HETATM   46  C13 FEW A1001      -8.357   9.145 -33.675  1.00 29.45    -0.023 A 
ATOM     47  H22 FEW A1001      -9.321   9.211 -31.732  1.00  0.00     0.086 H 
HETATM   48  C12 FEW A1001      -7.267   8.668 -34.393  1.00 31.33    -0.046 A 
ATOM     49  H12 FEW A1001      -7.146   8.942 -35.454  1.00  0.00     0.088 H 
BRANCH  43  50
HETATM   50  C24 FEW A1001      -7.615   7.650 -30.231  1.00 28.50     0.417 C 
HETATM   51  F27 FEW A1001      -8.553   8.490 -29.602  1.00 26.84    -0.166 F 
HETATM   52  F26 FEW A1001      -7.998   6.361 -30.083  1.00 29.95    -0.166 F 
HETATM   53  F25 FEW A1001      -6.365   7.823 -29.632  1.00 28.35    -0.166 F 
ENDBRANCH  43  50
BRANCH  46  54
HETATM   54  C14 FEW A1001      -9.430  10.063 -34.344  1.00 33.14    -0.032 C 
ATOM     55  H14 FEW A1001      -9.142  10.936 -34.955  1.00  0.00     0.103 H 
BRANCH  54  56
HETATM   56  N15 FEW A1001     -10.679   9.752 -34.148  1.00 41.22    -0.288 NA
HETATM   57  C16 FEW A1001     -11.404  10.738 -33.542  1.00 39.68     0.008 C 
HETATM   58  C17 FEW A1001     -12.726  10.134 -32.953  1.00 39.19     0.124 C 
ATOM     59 2H16 FEW A1001     -11.603  11.594 -34.227  1.00  0.00     0.059 H 
ATOM     60 1H16 FEW A1001     -10.810  11.283 -32.771  1.00  0.00     0.059 H 
HETATM   61  N18 FEW A1001     -13.364   9.249 -33.760  1.00 44.08     0.086 N 
ATOM     62 2H17 FEW A1001     -12.527   9.672 -31.958  1.00  0.00     0.081 H 
ATOM     63 1H17 FEW A1001     -13.422  10.952 -32.652  1.00  0.00     0.081 H 
HETATM   64  C20 FEW A1001     -12.858   9.040 -35.024  1.00 38.40     0.124 C 
HETATM   65  C21 FEW A1001     -11.306   9.228 -35.216  1.00 34.34     0.008 C 
ATOM     66 2H20 FEW A1001     -13.403   9.683 -35.754  1.00  0.00     0.081 H 
ATOM     67 1H20 FEW A1001     -13.156   8.026 -35.380  1.00  0.00     0.081 H 
ATOM     68 2H21 FEW A1001     -10.831   8.264 -35.515  1.00  0.00     0.059 H 
ATOM     69 1H21 FEW A1001     -11.096   9.833 -36.129  1.00  0.00     0.059 H 
BRANCH  61  70
HETATM   70  C19 FEW A1001     -14.608   9.535 -33.824  1.00 43.76     0.095 C 
ATOM     71 3H19 FEW A1001     -15.215   8.916 -33.122  1.00  0.00     0.071 H 
ATOM     72 2H19 FEW A1001     -14.829  10.538 -33.390  1.00  0.00     0.071 H 
ATOM     73 1H19 FEW A1001     -14.965   9.446 -34.876  1.00  0.00     0.071 H 
ENDBRANCH  61  70
ENDBRANCH  54  56
ENDBRANCH  46  54
ENDBRANCH   2  41
TORSDOF 12
ENDMDL
