REMARK  8 active torsions:
REMARK  status: ('A' for Active; 'I' for Inactive)
REMARK    1  A    between atoms: CAA_1  and  CAY_51 
REMARK    2  A    between atoms: CAB_2  and  CBF_65 
REMARK    3  A    between atoms: CAC_6  and  NBG_67 
REMARK    4  A    between atoms: CAR_41  and  CAZ_52 
REMARK    5  A    between atoms: CAR_41  and  NBH_68 
REMARK       I    between atoms: CAX_50  and  NAW_57 
REMARK    6  A    between atoms: CAX_50  and  CBB_61 
REMARK    7  A    between atoms: CBA_60  and  NAW_57 
REMARK    8  A    between atoms: CBD_63  and  NBI_69 
ROOT
HETATM    1  CAX 5X1 A1001      20.598   6.930  -1.260  1.00 40.69     0.256 C 
HETATM    2  NAW 5X1 A1001      20.181   7.439   0.079  1.00 39.78    -0.323 N 
ATOM      3  HAW 5X1 A1001      20.866   7.438   0.835  1.00  0.00     0.169 HD
HETATM    4  OAD 5X1 A1001      19.789   6.905  -2.220  1.00 43.55    -0.267 OA
ENDROOT
BRANCH   1   5
HETATM    5  CBB 5X1 A1001      22.040   6.433  -1.511  1.00 37.26     0.033 C 
HETATM    6  CAK 5X1 A1001      22.503   6.219  -2.837  1.00 33.19    -0.053 C 
HETATM    7  CAY 5X1 A1001      23.752   5.595  -3.028  1.00 35.05     0.049 C 
ATOM      8  HAK 5X1 A1001      21.896   6.536  -3.702  1.00  0.00     0.086 H 
HETATM    9  CAJ 5X1 A1001      24.632   5.523  -1.907  1.00 37.35    -0.060 C 
HETATM   10  CAZ 5X1 A1001      24.394   6.355  -0.785  1.00 37.22    -0.028 C 
ATOM     11  HAJ 5X1 A1001      25.488   4.827  -1.914  1.00  0.00     0.085 H 
HETATM   12  CAL 5X1 A1001      23.062   6.719  -0.536  1.00 38.14    -0.060 C 
ATOM     13  HAL 5X1 A1001      22.797   7.225   0.408  1.00  0.00     0.086 H 
BRANCH   7  14
HETATM   14  CAA 5X1 A1001      24.163   5.059  -4.404  1.00 37.13     0.417 C 
HETATM   15  F03 5X1 A1001      25.481   4.957  -4.518  1.00 35.48    -0.166 F 
HETATM   16  F02 5X1 A1001      23.651   3.827  -4.606  1.00 36.52    -0.166 F 
HETATM   17  F01 5X1 A1001      23.718   5.911  -5.340  1.00 41.00    -0.166 F 
ENDBRANCH   7  14
BRANCH  10  18
HETATM   18  CAR 5X1 A1001      25.451   6.444   0.335  1.00 33.44     0.137 C 
ATOM     19 2HAR 5X1 A1001      26.407   5.959   0.027  1.00  0.00     0.087 H 
ATOM     20 1HAR 5X1 A1001      25.816   7.490   0.463  1.00  0.00     0.087 H 
BRANCH  18  21
HETATM   21  NBH 5X1 A1001      24.967   5.901   1.585  1.00 31.62     0.096 N 
HETATM   22  CAP 5X1 A1001      24.578   4.546   1.513  1.00 31.23     0.138 C 
HETATM   23  CAN 5X1 A1001      23.922   4.080   2.808  1.00 32.34     0.138 C 
ATOM     24 2HAP 5X1 A1001      25.435   3.891   1.232  1.00  0.00     0.082 H 
ATOM     25 1HAP 5X1 A1001      23.920   4.358   0.633  1.00  0.00     0.082 H 
HETATM   26  NBG 5X1 A1001      24.849   4.247   3.874  1.00 34.87     0.087 N 
ATOM     27 2HAN 5X1 A1001      23.535   3.037   2.739  1.00  0.00     0.082 H 
ATOM     28 1HAN 5X1 A1001      22.951   4.592   3.003  1.00  0.00     0.082 H 
HETATM   29  CAO 5X1 A1001      25.329   5.637   3.982  1.00 34.63     0.138 C 
HETATM   30  CAQ 5X1 A1001      25.903   6.115   2.655  1.00 31.96     0.138 C 
ATOM     31 2HAO 5X1 A1001      24.532   6.321   4.357  1.00  0.00     0.082 H 
ATOM     32 1HAO 5X1 A1001      26.060   5.758   4.815  1.00  0.00     0.082 H 
ATOM     33 2HAQ 5X1 A1001      26.232   7.179   2.708  1.00  0.00     0.082 H 
ATOM     34 1HAQ 5X1 A1001      26.890   5.644   2.439  1.00  0.00     0.082 H 
BRANCH  26  35
HETATM   35  CAC 5X1 A1001      24.288   3.821   5.113  1.00 33.60     0.095 C 
ATOM     36 3HAC 5X1 A1001      23.322   4.335   5.325  1.00  0.00     0.071 H 
ATOM     37 2HAC 5X1 A1001      23.913   2.772   5.055  1.00  0.00     0.071 H 
ATOM     38 1HAC 5X1 A1001      25.015   3.952   5.949  1.00  0.00     0.071 H 
ENDBRANCH  26  35
ENDBRANCH  18  21
ENDBRANCH  10  18
ENDBRANCH   1   5
BRANCH   2  39
HETATM   39  CBA 5X1 A1001      18.860   7.930   0.351  1.00 41.50     0.032 A 
HETATM   40  CAE 5X1 A1001      18.668   8.905   1.356  1.00 45.24    -0.073 A 
HETATM   41  CAF 5X1 A1001      17.377   9.433   1.645  1.00 48.98    -0.026 A 
ATOM     42  HAE 5X1 A1001      19.538   9.265   1.930  1.00  0.00     0.080 H 
HETATM   43  CBE 5X1 A1001      16.152   8.941   0.874  1.00 48.86    -0.063 A 
ATOM     44 2HAF 5X1 A1001      17.181   9.303   2.735  1.00  0.00     0.045 H 
ATOM     45 1HAF 5X1 A1001      17.424  10.543   1.556  1.00  0.00     0.045 H 
HETATM   46  CBC 5X1 A1001      16.328   8.025  -0.087  1.00 46.40    -0.035 A 
HETATM   47  CBF 5X1 A1001      14.810   9.510   1.259  1.00 48.00    -0.019 C 
HETATM   48  CAM 5X1 A1001      17.727   7.472  -0.362  1.00 44.24    -0.050 A 
HETATM   49  CAS 5X1 A1001      15.170   7.413  -0.962  1.00 44.80     0.019 C 
ATOM     50  HAM 5X1 A1001      17.856   6.697  -1.136  1.00  0.00     0.087 H 
HETATM   51  NBI 5X1 A1001      13.944   8.147  -0.658  1.00 44.82    -0.374 N 
ATOM     52 2HAS 5X1 A1001      15.410   7.403  -2.051  1.00  0.00     0.071 H 
ATOM     53 1HAS 5X1 A1001      15.060   6.312  -0.825  1.00  0.00     0.071 H 
HETATM   54  CAT 5X1 A1001      13.744   8.622   0.679  1.00 46.06     0.002 C 
ATOM     55 2HAT 5X1 A1001      13.573   7.755   1.359  1.00  0.00     0.065 H 
ATOM     56 1HAT 5X1 A1001      12.757   9.136   0.746  1.00  0.00     0.065 H 
ATOM     57  HBF 5X1 A1001      14.728   9.448   2.369  1.00  0.00     0.049 H 
BRANCH  51  58
HETATM   58  CBD 5X1 A1001      12.784   7.737  -1.455  1.00 45.56     0.061 A 
HETATM   59  CAH 5X1 A1001      11.709   6.990  -0.916  1.00 43.92     0.005 A 
HETATM   60  NAU 5X1 A1001      10.671   6.574  -1.729  1.00 45.64    -0.360 N 
ATOM     61  HAH 5X1 A1001      11.700   6.739   0.158  1.00  0.00     0.114 H 
HETATM   62  CAG 5X1 A1001      10.660   6.864  -3.049  1.00 46.45     0.040 A 
ATOM     63  HAU 5X1 A1001       9.901   6.040  -1.326  1.00  0.00     0.166 HD
HETATM   64  NAV 5X1 A1001      11.697   7.571  -3.601  1.00 46.08    -0.360 N 
ATOM     65  HAG 5X1 A1001       9.819   6.533  -3.681  1.00  0.00     0.140 H 
HETATM   66  CAI 5X1 A1001      12.699   7.977  -2.836  1.00 47.22     0.005 A 
ATOM     67  HAV 5X1 A1001      11.697   7.784  -4.599  1.00  0.00     0.166 HD
ATOM     68  HAI 5X1 A1001      13.519   8.539  -3.314  1.00  0.00     0.114 H 
ENDBRANCH  51  58
BRANCH  47  69
HETATM   69  CAB 5X1 A1001      14.654  10.932   0.882  1.00 48.09    -0.068 C 
ATOM     70 3HAB 5X1 A1001      14.603  11.045  -0.226  1.00  0.00     0.028 H 
ATOM     71 2HAB 5X1 A1001      13.638  11.304   1.151  1.00  0.00     0.028 H 
ATOM     72 1HAB 5X1 A1001      15.444  11.590   1.312  1.00  0.00     0.028 H 
ENDBRANCH  47  69
ENDBRANCH   2  39
TORSDOF 8
