REMARK VINA RESULT:      -7.6      0.000      0.000
REMARK  8 active torsions:
REMARK  status: ('A' for Active; 'I' for Inactive)
REMARK    1  A    between atoms: C5_5  and  C7_12 
REMARK       I    between atoms: C9_19  and  N13_22 
REMARK    2  A    between atoms: C14_24  and  N13_22 
REMARK    3  A    between atoms: C19_25  and  C20_68 
REMARK    4  A    between atoms: C16_30  and  N21_33 
REMARK       I    between atoms: C22_35  and  N21_33 
REMARK    5  A    between atoms: C22_35  and  C23_36 
REMARK    6  A    between atoms: C27_41  and  C46_46 
REMARK    7  A    between atoms: C46_46  and  N48_49 
REMARK    8  A    between atoms: C54_57  and  N51_56 
REMARK viewdock state: V
HETATM    1  C14 STI B1000     -12.176  -1.532 -16.580  1.00 21.26     0.057 A 
HETATM    2  C19 STI B1000     -12.628  -0.741 -15.488  1.00 20.09    -0.035 A 
HETATM    3  C18 STI B1000     -13.090   0.554 -15.745  1.00 21.69    -0.073 A 
ATOM      4  H18 STI B1000     -13.455   1.183 -14.915  1.00  0.00     0.084 H 
HETATM    5  C17 STI B1000     -13.090   1.052 -17.056  1.00 21.30    -0.057 A 
ATOM      6  H17 STI B1000     -13.467   2.070 -17.254  1.00  0.00     0.086 H 
HETATM    7  C16 STI B1000     -12.611   0.264 -18.125  1.00 17.84     0.037 A 
HETATM    8  C15 STI B1000     -12.189  -1.052 -17.881  1.00 18.40    -0.030 A 
ATOM      9  H15 STI B1000     -11.869  -1.698 -18.716  1.00  0.00     0.090 H 
HETATM   10  N21 STI B1000     -12.727   0.802 -19.437  1.00 20.93    -0.323 N 
HETATM   11  C22 STI B1000     -13.897   0.707 -20.310  1.00 19.50     0.256 C 
HETATM   12  O29 STI B1000     -14.891   0.070 -20.012  1.00 16.86    -0.267 OA
ATOM     13  H21 STI B1000     -11.917   1.303 -19.803  1.00  0.00     0.169 HD
HETATM   14  C23 STI B1000     -13.822   1.465 -21.611  1.00 18.49     0.032 A 
HETATM   15  C29 STI B1000     -13.241   0.835 -22.734  1.00 19.41    -0.067 A 
HETATM   16  C28 STI B1000     -13.195   1.498 -23.966  1.00 22.05    -0.074 A 
ATOM     17  H29 STI B1000     -12.822  -0.181 -22.640  1.00  0.00     0.085 H 
HETATM   18  C27 STI B1000     -13.708   2.783 -24.091  1.00 20.38    -0.030 A 
ATOM     19  H28 STI B1000     -12.749   0.998 -24.842  1.00  0.00     0.084 H 
HETATM   20  C26 STI B1000     -14.310   3.413 -22.996  1.00 21.40    -0.074 A 
HETATM   21  C25 STI B1000     -14.359   2.760 -21.767  1.00 17.25    -0.067 A 
ATOM     22  H26 STI B1000     -14.743   4.421 -23.106  1.00  0.00     0.084 H 
ATOM     23  H25 STI B1000     -14.825   3.262 -20.903  1.00  0.00     0.085 H 
HETATM   24  C46 STI B1000     -13.647   3.477 -25.418  1.00 19.28     0.137 C 
ATOM     25 2H46 STI B1000     -14.670   3.775 -25.743  1.00  0.00     0.087 H 
ATOM     26 1H46 STI B1000     -13.178   4.482 -25.305  1.00  0.00     0.087 H 
HETATM   27  N48 STI B1000     -12.981   2.726 -26.476  1.00 17.34     0.096 N 
HETATM   28  C49 STI B1000     -13.948   2.111 -27.432  1.00 19.05     0.138 C 
HETATM   29  C50 STI B1000     -13.248   1.208 -28.466  1.00 17.36     0.138 C 
ATOM     30 2H49 STI B1000     -14.572   2.888 -27.931  1.00  0.00     0.082 H 
ATOM     31 1H49 STI B1000     -14.752   1.558 -26.893  1.00  0.00     0.082 H 
HETATM   32  N51 STI B1000     -12.101   1.824 -29.144  1.00 18.41     0.087 N 
ATOM     33 2H50 STI B1000     -12.946   0.244 -27.994  1.00  0.00     0.082 H 
ATOM     34 1H50 STI B1000     -13.985   0.835 -29.214  1.00  0.00     0.082 H 
HETATM   35  C52 STI B1000     -11.167   2.343 -28.130  1.00 20.57     0.138 C 
HETATM   36  C53 STI B1000     -11.867   3.306 -27.232  1.00 19.08     0.138 C 
ATOM     37 2H52 STI B1000     -10.674   1.523 -27.557  1.00  0.00     0.082 H 
ATOM     38 1H52 STI B1000     -10.257   2.791 -28.592  1.00  0.00     0.082 H 
ATOM     39 2H53 STI B1000     -11.140   3.794 -26.542  1.00  0.00     0.082 H 
ATOM     40 1H53 STI B1000     -12.209   4.197 -27.808  1.00  0.00     0.082 H 
HETATM   41  C54 STI B1000     -11.490   1.063 -30.274  1.00 17.97     0.095 C 
ATOM     42 3H54 STI B1000     -12.241   0.353 -30.692  1.00  0.00     0.071 H 
ATOM     43 2H54 STI B1000     -11.343   1.744 -31.144  1.00  0.00     0.071 H 
ATOM     44 1H54 STI B1000     -10.540   0.518 -30.064  1.00  0.00     0.071 H 
HETATM   45  N13 STI B1000     -11.724  -2.880 -16.332  1.00 22.00    -0.191 N 
HETATM   46  C9  STI B1000     -12.582  -4.019 -16.486  1.00 29.27     0.683 A 
HETATM   47  N10 STI B1000     -13.836  -3.899 -16.944  1.00 22.71    -0.202 N 
HETATM   48  N8  STI B1000     -12.049  -5.186 -16.121  1.00 21.75    -0.191 N 
HETATM   49  C11 STI B1000     -14.617  -5.012 -17.058  1.00 23.22    -0.004 A 
ATOM     50  H10 STI B1000     -14.204  -2.983 -17.203  1.00  0.00     0.183 HD
HETATM   51  C12 STI B1000     -14.106  -6.265 -16.696  1.00 21.32    -0.040 A 
ATOM     52  H11 STI B1000     -15.649  -4.926 -17.436  1.00  0.00     0.112 H 
HETATM   53  C7  STI B1000     -12.773  -6.336 -16.207  1.00 25.96     0.062 A 
ATOM     54  H12 STI B1000     -14.724  -7.174 -16.788  1.00  0.00     0.089 H 
ATOM     55  H8  STI B1000     -11.090  -5.217 -15.775  1.00  0.00     0.184 HD
ATOM     56  H13 STI B1000     -10.759  -3.029 -16.035  1.00  0.00     0.184 HD
HETATM   57  C5  STI B1000     -12.167  -7.537 -15.811  1.00 20.71     0.007 A 
HETATM   58  C4  STI B1000     -12.817  -8.371 -14.878  1.00 23.66    -0.011 A 
HETATM   59  N3  STI B1000     -12.269  -9.503 -14.479  1.00 21.17    -0.374 N 
ATOM     60  H4  STI B1000     -13.799  -8.072 -14.475  1.00  0.00     0.112 H 
HETATM   61  C2  STI B1000     -11.098  -9.912 -14.953  1.00 27.88    -0.023 A 
ATOM     62  H3  STI B1000     -12.756 -10.077 -13.791  1.00  0.00     0.164 HD
HETATM   63  C1  STI B1000     -10.399  -9.150 -15.868  1.00 28.67    -0.067 A 
ATOM     64  H2  STI B1000     -10.679 -10.873 -14.612  1.00  0.00     0.111 H 
HETATM   65  C6  STI B1000     -10.923  -7.933 -16.315  1.00 27.99    -0.068 A 
ATOM     66  H1  STI B1000      -9.426  -9.503 -16.248  1.00  0.00     0.085 H 
ATOM     67  H6  STI B1000     -10.375  -7.307 -17.038  1.00  0.00     0.085 H 
HETATM   68  C20 STI B1000     -12.599  -1.346 -14.085  1.00 21.76    -0.049 C 
ATOM     69 3H20 STI B1000     -11.551  -1.636 -13.839  1.00  0.00     0.033 H 
ATOM     70 2H20 STI B1000     -12.780  -0.538 -13.339  1.00  0.00     0.033 H 
ATOM     71 1H20 STI B1000     -13.274  -2.204 -13.860  1.00  0.00     0.033 H 
ENDMDL
REMARK VINA RESULT:      -7.1     32.472     34.963
REMARK  8 active torsions:
REMARK  status: ('A' for Active; 'I' for Inactive)
REMARK    1  A    between atoms: C5_5  and  C7_12 
REMARK       I    between atoms: C9_19  and  N13_22 
REMARK    2  A    between atoms: C14_24  and  N13_22 
REMARK    3  A    between atoms: C19_25  and  C20_68 
REMARK    4  A    between atoms: C16_30  and  N21_33 
REMARK       I    between atoms: C22_35  and  N21_33 
REMARK    5  A    between atoms: C22_35  and  C23_36 
REMARK    6  A    between atoms: C27_41  and  C46_46 
REMARK    7  A    between atoms: C46_46  and  N48_49 
REMARK    8  A    between atoms: C54_57  and  N51_56 
REMARK viewdock state: V
HETATM    1  C14 STI B1000      -7.826  -3.818 -53.384  1.00 21.26     0.057 A 
HETATM    2  C19 STI B1000      -7.400  -3.172 -54.577  1.00 20.09    -0.035 A 
HETATM    3  C18 STI B1000      -6.115  -3.438 -55.062  1.00 21.69    -0.073 A 
ATOM      4  H18 STI B1000      -5.766  -2.957 -55.991  1.00  0.00     0.084 H 
HETATM    5  C17 STI B1000      -5.271  -4.317 -54.367  1.00 21.30    -0.057 A 
ATOM      6  H17 STI B1000      -4.263  -4.533 -54.761  1.00  0.00     0.086 H 
HETATM    7  C16 STI B1000      -5.698  -4.928 -53.168  1.00 17.84     0.037 A 
HETATM    8  C15 STI B1000      -7.002  -4.701 -52.701  1.00 18.40    -0.030 A 
ATOM      9  H15 STI B1000      -7.368  -5.219 -51.799  1.00  0.00     0.090 H 
HETATM   10  N21 STI B1000      -4.823  -5.876 -52.570  1.00 20.93    -0.323 N 
HETATM   11  C22 STI B1000      -4.753  -7.304 -52.879  1.00 19.50     0.256 C 
HETATM   12  O29 STI B1000      -5.518  -7.848 -53.655  1.00 16.86    -0.267 OA
ATOM     13  H21 STI B1000      -4.182  -5.526 -51.857  1.00  0.00     0.169 HD
HETATM   14  C23 STI B1000      -3.656  -8.082 -52.198  1.00 18.49     0.032 A 
HETATM   15  C29 STI B1000      -2.776  -7.398 -51.328  1.00 19.41    -0.067 A 
HETATM   16  C28 STI B1000      -1.774  -8.101 -50.649  1.00 22.05    -0.074 A 
ATOM     17  H29 STI B1000      -2.880  -6.310 -51.184  1.00  0.00     0.085 H 
HETATM   18  C27 STI B1000      -1.628  -9.470 -50.835  1.00 20.38    -0.030 A 
ATOM     19  H28 STI B1000      -1.096  -7.566 -49.964  1.00  0.00     0.084 H 
HETATM   20  C26 STI B1000      -2.505 -10.168 -51.672  1.00 21.40    -0.074 A 
HETATM   21  C25 STI B1000      -3.505  -9.476 -52.351  1.00 17.25    -0.067 A 
ATOM     22  H26 STI B1000      -2.405 -11.259 -51.794  1.00  0.00     0.084 H 
ATOM     23  H25 STI B1000      -4.189 -10.026 -53.018  1.00  0.00     0.085 H 
HETATM   24  C46 STI B1000      -0.546 -10.204 -50.101  1.00 19.28     0.137 C 
ATOM     25 2H46 STI B1000      -0.879 -10.444 -49.064  1.00  0.00     0.087 H 
ATOM     26 1H46 STI B1000      -0.433 -11.234 -50.512  1.00  0.00     0.087 H 
HETATM   27  N48 STI B1000       0.747  -9.528 -50.070  1.00 17.34     0.096 N 
HETATM   28  C49 STI B1000       1.565  -9.920 -48.885  1.00 19.05     0.138 C 
HETATM   29  C50 STI B1000       2.868  -9.105 -48.784  1.00 17.36     0.138 C 
ATOM     30 2H49 STI B1000       1.773 -11.016 -48.883  1.00  0.00     0.082 H 
ATOM     31 1H49 STI B1000       0.971  -9.851 -47.944  1.00  0.00     0.082 H 
HETATM   32  N51 STI B1000       3.657  -9.050 -50.020  1.00 18.41     0.087 N 
ATOM     33 2H50 STI B1000       2.650  -8.074 -48.419  1.00  0.00     0.082 H 
ATOM     34 1H50 STI B1000       3.494  -9.480 -47.942  1.00  0.00     0.082 H 
HETATM   35  C52 STI B1000       2.792  -8.591 -51.121  1.00 20.57     0.138 C 
HETATM   36  C53 STI B1000       1.609  -9.488 -51.254  1.00 19.08     0.138 C 
ATOM     37 2H52 STI B1000       2.493  -7.523 -51.000  1.00  0.00     0.082 H 
ATOM     38 1H52 STI B1000       3.353  -8.496 -52.080  1.00  0.00     0.082 H 
ATOM     39 2H53 STI B1000       1.017  -9.220 -52.159  1.00  0.00     0.082 H 
ATOM     40 1H53 STI B1000       1.932 -10.517 -51.536  1.00  0.00     0.082 H 
HETATM   41  C54 STI B1000       5.008  -8.420 -49.937  1.00 17.97     0.095 C 
ATOM     42 3H54 STI B1000       4.903  -7.310 -49.964  1.00  0.00     0.071 H 
ATOM     43 2H54 STI B1000       5.423  -8.563 -48.912  1.00  0.00     0.071 H 
ATOM     44 1H54 STI B1000       5.764  -8.738 -50.692  1.00  0.00     0.071 H 
HETATM   45  N13 STI B1000      -9.159  -3.573 -52.890  1.00 22.00    -0.191 N 
HETATM   46  C9  STI B1000     -10.287  -4.359 -53.301  1.00 29.27     0.683 A 
HETATM   47  N10 STI B1000     -10.150  -5.415 -54.114  1.00 22.71    -0.202 N 
HETATM   48  N8  STI B1000     -11.466  -3.945 -52.836  1.00 21.75    -0.191 N 
HETATM   49  C11 STI B1000     -11.257  -6.120 -54.488  1.00 23.22    -0.004 A 
ATOM     50  H10 STI B1000      -9.227  -5.689 -54.452  1.00  0.00     0.183 HD
HETATM   51  C12 STI B1000     -12.521  -5.736 -54.024  1.00 21.32    -0.040 A 
ATOM     52  H11 STI B1000     -11.156  -6.993 -55.154  1.00  0.00     0.112 H 
HETATM   53  C7  STI B1000     -12.612  -4.602 -53.171  1.00 25.96     0.062 A 
ATOM     54  H12 STI B1000     -13.424  -6.300 -54.313  1.00  0.00     0.089 H 
ATOM     55  H8  STI B1000     -11.511  -3.131 -52.224  1.00  0.00     0.184 HD
ATOM     56  H13 STI B1000      -9.305  -2.815 -52.224  1.00  0.00     0.184 HD
HETATM   57  C5  STI B1000     -13.827  -4.127 -52.656  1.00 20.71     0.007 A 
HETATM   58  C4  STI B1000     -14.077  -2.740 -52.627  1.00 23.66    -0.011 A 
HETATM   59  N3  STI B1000     -15.206  -2.262 -52.142  1.00 21.17    -0.374 N 
ATOM     60  H4  STI B1000     -13.316  -2.043 -53.017  1.00  0.00     0.112 H 
HETATM   61  C2  STI B1000     -16.159  -3.064 -51.681  1.00 27.88    -0.023 A 
ATOM     62  H3  STI B1000     -15.351  -1.252 -52.119  1.00  0.00     0.164 HD
HETATM   63  C1  STI B1000     -15.989  -4.433 -51.674  1.00 28.67    -0.067 A 
ATOM     64  H2  STI B1000     -17.098  -2.630 -51.300  1.00  0.00     0.111 H 
HETATM   65  C6  STI B1000     -14.804  -4.997 -52.161  1.00 27.99    -0.068 A 
ATOM     66  H1  STI B1000     -16.788  -5.085 -51.284  1.00  0.00     0.085 H 
ATOM     67  H6  STI B1000     -14.647  -6.088 -52.155  1.00  0.00     0.085 H 
HETATM   68  C20 STI B1000      -8.370  -2.225 -55.282  1.00 21.76    -0.049 C 
ATOM     69 3H20 STI B1000      -8.668  -2.674 -56.258  1.00  0.00     0.033 H 
ATOM     70 2H20 STI B1000      -9.342  -2.231 -54.736  1.00  0.00     0.033 H 
ATOM     71 1H20 STI B1000      -8.056  -1.168 -55.450  1.00  0.00     0.033 H 
ENDMDL
REMARK VINA RESULT:      -7.0     32.897     35.891
REMARK  8 active torsions:
REMARK  status: ('A' for Active; 'I' for Inactive)
REMARK    1  A    between atoms: C5_5  and  C7_12 
REMARK       I    between atoms: C9_19  and  N13_22 
REMARK    2  A    between atoms: C14_24  and  N13_22 
REMARK    3  A    between atoms: C19_25  and  C20_68 
REMARK    4  A    between atoms: C16_30  and  N21_33 
REMARK       I    between atoms: C22_35  and  N21_33 
REMARK    5  A    between atoms: C22_35  and  C23_36 
REMARK    6  A    between atoms: C27_41  and  C46_46 
REMARK    7  A    between atoms: C46_46  and  N48_49 
REMARK    8  A    between atoms: C54_57  and  N51_56 
REMARK viewdock state: V
HETATM    1  C14 STI B1000      -9.241  -6.120 -54.750  1.00 21.26     0.057 A 
HETATM    2  C19 STI B1000     -10.127  -7.172 -55.114  1.00 20.09    -0.035 A 
HETATM    3  C18 STI B1000      -9.759  -8.489 -54.823  1.00 21.69    -0.073 A 
ATOM      4  H18 STI B1000     -10.434  -9.321 -55.087  1.00  0.00     0.084 H 
HETATM    5  C17 STI B1000      -8.531  -8.754 -54.197  1.00 21.30    -0.057 A 
ATOM      6  H17 STI B1000      -8.252  -9.794 -53.960  1.00  0.00     0.086 H 
HETATM    7  C16 STI B1000      -7.650  -7.700 -53.868  1.00 17.84     0.037 A 
HETATM    8  C15 STI B1000      -8.033  -6.373 -54.116  1.00 18.40    -0.030 A 
ATOM      9  H15 STI B1000      -7.381  -5.539 -53.809  1.00  0.00     0.090 H 
HETATM   10  N21 STI B1000      -6.467  -8.037 -53.155  1.00 20.93    -0.323 N 
HETATM   11  C22 STI B1000      -5.148  -8.288 -53.737  1.00 19.50     0.256 C 
HETATM   12  O29 STI B1000      -4.951  -8.305 -54.939  1.00 16.86    -0.267 OA
ATOM     13  H21 STI B1000      -6.545  -8.110 -52.140  1.00  0.00     0.169 HD
HETATM   14  C23 STI B1000      -4.019  -8.508 -52.763  1.00 18.49     0.032 A 
HETATM   15  C29 STI B1000      -3.479  -7.392 -52.084  1.00 19.41    -0.067 A 
HETATM   16  C28 STI B1000      -2.458  -7.570 -51.143  1.00 22.05    -0.074 A 
ATOM     17  H29 STI B1000      -3.863  -6.380 -52.296  1.00  0.00     0.085 H 
HETATM   18  C27 STI B1000      -1.959  -8.839 -50.880  1.00 20.38    -0.030 A 
ATOM     19  H28 STI B1000      -2.047  -6.697 -50.608  1.00  0.00     0.084 H 
HETATM   20  C26 STI B1000      -2.498  -9.958 -51.523  1.00 21.40    -0.074 A 
HETATM   21  C25 STI B1000      -3.515  -9.790 -52.461  1.00 17.25    -0.067 A 
ATOM     22  H26 STI B1000      -2.121 -10.967 -51.290  1.00  0.00     0.084 H 
ATOM     23  H25 STI B1000      -3.931 -10.672 -52.975  1.00  0.00     0.085 H 
HETATM   24  C46 STI B1000      -0.864  -9.008 -49.870  1.00 19.28     0.137 C 
ATOM     25 2H46 STI B1000      -0.470  -8.012 -49.560  1.00  0.00     0.087 H 
ATOM     26 1H46 STI B1000      -1.286  -9.360 -48.901  1.00  0.00     0.087 H 
HETATM   27  N48 STI B1000       0.232  -9.876 -50.288  1.00 17.34     0.096 N 
HETATM   28  C49 STI B1000       1.560  -9.204 -50.184  1.00 19.05     0.138 C 
HETATM   29  C50 STI B1000       2.697 -10.074 -50.753  1.00 17.36     0.138 C 
ATOM     30 2H49 STI B1000       1.775  -8.895 -49.134  1.00  0.00     0.082 H 
ATOM     31 1H49 STI B1000       1.543  -8.198 -50.664  1.00  0.00     0.082 H 
HETATM   32  N51 STI B1000       2.723 -11.454 -50.256  1.00 18.41     0.087 N 
ATOM     33 2H50 STI B1000       2.668 -10.065 -51.868  1.00  0.00     0.082 H 
ATOM     34 1H50 STI B1000       3.682  -9.582 -50.581  1.00  0.00     0.082 H 
HETATM   35  C52 STI B1000       1.397 -12.062 -50.459  1.00 20.57     0.138 C 
HETATM   36  C53 STI B1000       0.349 -11.246 -49.782  1.00 19.08     0.138 C 
ATOM     37 2H52 STI B1000       1.170 -12.219 -51.539  1.00  0.00     0.082 H 
ATOM     38 1H52 STI B1000       1.372 -13.127 -50.130  1.00  0.00     0.082 H 
ATOM     39 2H53 STI B1000      -0.637 -11.764 -49.828  1.00  0.00     0.082 H 
ATOM     40 1H53 STI B1000       0.511 -11.242 -48.679  1.00  0.00     0.082 H 
HETATM   41  C54 STI B1000       3.898 -12.293 -50.639  1.00 17.97     0.095 C 
ATOM     42 3H54 STI B1000       4.764 -12.041 -49.984  1.00  0.00     0.071 H 
ATOM     43 2H54 STI B1000       3.713 -13.350 -50.340  1.00  0.00     0.071 H 
ATOM     44 1H54 STI B1000       4.219 -12.260 -51.706  1.00  0.00     0.071 H 
HETATM   45  N13 STI B1000      -9.623  -4.755 -55.018  1.00 22.00    -0.191 N 
HETATM   46  C9  STI B1000     -10.425  -3.988 -54.108  1.00 29.27     0.683 A 
HETATM   47  N10 STI B1000     -10.803  -4.478 -52.919  1.00 22.71    -0.202 N 
HETATM   48  N8  STI B1000     -10.779  -2.779 -54.544  1.00 21.75    -0.191 N 
HETATM   49  C11 STI B1000     -11.578  -3.714 -52.096  1.00 23.22    -0.004 A 
ATOM     50  H10 STI B1000     -10.514  -5.413 -52.632  1.00  0.00     0.183 HD
HETATM   51  C12 STI B1000     -11.974  -2.432 -52.499  1.00 21.32    -0.040 A 
ATOM     52  H11 STI B1000     -11.892  -4.105 -51.114  1.00  0.00     0.112 H 
HETATM   53  C7  STI B1000     -11.554  -1.965 -53.774  1.00 25.96     0.062 A 
ATOM     54  H12 STI B1000     -12.596  -1.801 -51.842  1.00  0.00     0.089 H 
ATOM     55  H8  STI B1000     -10.466  -2.461 -55.460  1.00  0.00     0.184 HD
ATOM     56  H13 STI B1000      -9.312  -4.318 -55.886  1.00  0.00     0.184 HD
HETATM   57  C5  STI B1000     -11.898  -0.702 -54.278  1.00 20.71     0.007 A 
HETATM   58  C4  STI B1000     -11.231  -0.199 -55.414  1.00 23.66    -0.011 A 
HETATM   59  N3  STI B1000     -11.526   0.988 -55.907  1.00 21.17    -0.374 N 
ATOM     60  H4  STI B1000     -10.449  -0.809 -55.898  1.00  0.00     0.112 H 
HETATM   61  C2  STI B1000     -12.474   1.746 -55.370  1.00 27.88    -0.023 A 
ATOM     62  H3  STI B1000     -11.015   1.331 -56.720  1.00  0.00     0.164 HD
HETATM   63  C1  STI B1000     -13.171   1.325 -54.256  1.00 28.67    -0.067 A 
ATOM     64  H2  STI B1000     -12.708   2.726 -55.820  1.00  0.00     0.111 H 
HETATM   65  C6  STI B1000     -12.890   0.082 -53.679  1.00 27.99    -0.068 A 
ATOM     66  H1  STI B1000     -13.953   1.970 -53.819  1.00  0.00     0.085 H 
ATOM     67  H6  STI B1000     -13.430  -0.267 -52.784  1.00  0.00     0.085 H 
HETATM   68  C20 STI B1000     -11.447  -6.813 -55.794  1.00 21.76    -0.049 C 
ATOM     69 3H20 STI B1000     -11.749  -5.787 -55.479  1.00  0.00     0.033 H 
ATOM     70 2H20 STI B1000     -11.262  -6.658 -56.883  1.00  0.00     0.033 H 
ATOM     71 1H20 STI B1000     -12.316  -7.501 -55.669  1.00  0.00     0.033 H 
ENDMDL
REMARK VINA RESULT:      -6.9     32.787     34.913
REMARK  8 active torsions:
REMARK  status: ('A' for Active; 'I' for Inactive)
REMARK    1  A    between atoms: C5_5  and  C7_12 
REMARK       I    between atoms: C9_19  and  N13_22 
REMARK    2  A    between atoms: C14_24  and  N13_22 
REMARK    3  A    between atoms: C19_25  and  C20_68 
REMARK    4  A    between atoms: C16_30  and  N21_33 
REMARK       I    between atoms: C22_35  and  N21_33 
REMARK    5  A    between atoms: C22_35  and  C23_36 
REMARK    6  A    between atoms: C27_41  and  C46_46 
REMARK    7  A    between atoms: C46_46  and  N48_49 
REMARK    8  A    between atoms: C54_57  and  N51_56 
REMARK viewdock state: V
HETATM    1  C14 STI B1000       2.583  -7.859 -50.307  1.00 21.26     0.057 A 
HETATM    2  C19 STI B1000       3.152  -9.113 -50.660  1.00 20.09    -0.035 A 
HETATM    3  C18 STI B1000       2.402  -9.993 -51.446  1.00 21.69    -0.073 A 
ATOM      4  H18 STI B1000       2.827 -10.968 -51.740  1.00  0.00     0.084 H 
HETATM    5  C17 STI B1000       1.109  -9.638 -51.860  1.00 21.30    -0.057 A 
ATOM      6  H17 STI B1000       0.527 -10.331 -52.490  1.00  0.00     0.086 H 
HETATM    7  C16 STI B1000       0.547  -8.400 -51.477  1.00 17.84     0.037 A 
HETATM    8  C15 STI B1000       1.312  -7.493 -50.727  1.00 18.40    -0.030 A 
ATOM      9  H15 STI B1000       0.906  -6.500 -50.473  1.00  0.00     0.090 H 
HETATM   10  N21 STI B1000      -0.730  -8.071 -52.009  1.00 20.93    -0.323 N 
HETATM   11  C22 STI B1000      -1.962  -7.878 -51.243  1.00 19.50     0.256 C 
HETATM   12  O29 STI B1000      -2.025  -8.060 -50.041  1.00 16.86    -0.267 OA
ATOM     13  H21 STI B1000      -0.794  -7.958 -53.021  1.00  0.00     0.169 HD
HETATM   14  C23 STI B1000      -3.166  -7.413 -52.022  1.00 18.49     0.032 A 
HETATM   15  C29 STI B1000      -3.969  -8.376 -52.675  1.00 19.41    -0.067 A 
HETATM   16  C28 STI B1000      -5.116  -7.978 -53.370  1.00 22.05    -0.074 A 
ATOM     17  H29 STI B1000      -3.690  -9.442 -52.635  1.00  0.00     0.085 H 
HETATM   18  C27 STI B1000      -5.468  -6.636 -53.436  1.00 20.38    -0.030 A 
ATOM     19  H28 STI B1000      -5.745  -8.735 -53.869  1.00  0.00     0.084 H 
HETATM   20  C26 STI B1000      -4.700  -5.671 -52.775  1.00 21.40    -0.074 A 
HETATM   21  C25 STI B1000      -3.556  -6.059 -52.080  1.00 17.25    -0.067 A 
ATOM     22  H26 STI B1000      -4.998  -4.610 -52.804  1.00  0.00     0.084 H 
ATOM     23  H25 STI B1000      -2.947  -5.295 -51.569  1.00  0.00     0.085 H 
HETATM   24  C46 STI B1000      -6.699  -6.231 -54.188  1.00 19.28     0.137 C 
ATOM     25 2H46 STI B1000      -6.517  -5.281 -54.741  1.00  0.00     0.087 H 
ATOM     26 1H46 STI B1000      -6.873  -6.924 -55.043  1.00  0.00     0.087 H 
HETATM   27  N48 STI B1000      -7.907  -6.118 -53.378  1.00 17.34     0.096 N 
HETATM   28  C49 STI B1000      -8.431  -4.721 -53.330  1.00 19.05     0.138 C 
HETATM   29  C50 STI B1000      -9.624  -4.581 -52.365  1.00 17.36     0.138 C 
ATOM     30 2H49 STI B1000      -8.690  -4.352 -54.350  1.00  0.00     0.082 H 
ATOM     31 1H49 STI B1000      -7.622  -3.995 -53.080  1.00  0.00     0.082 H 
HETATM   32  N51 STI B1000     -10.687  -5.575 -52.554  1.00 18.41     0.087 N 
ATOM     33 2H50 STI B1000      -9.269  -4.591 -51.309  1.00  0.00     0.082 H 
ATOM     34 1H50 STI B1000     -10.045  -3.550 -52.419  1.00  0.00     0.082 H 
HETATM   35  C52 STI B1000     -10.095  -6.923 -52.520  1.00 20.57     0.138 C 
HETATM   36  C53 STI B1000      -9.030  -7.042 -53.557  1.00 19.08     0.138 C 
ATOM     37 2H52 STI B1000      -9.719  -7.188 -51.505  1.00  0.00     0.082 H 
ATOM     38 1H52 STI B1000     -10.868  -7.720 -52.623  1.00  0.00     0.082 H 
ATOM     39 2H53 STI B1000      -8.664  -8.093 -53.619  1.00  0.00     0.082 H 
ATOM     40 1H53 STI B1000      -9.466  -6.932 -54.577  1.00  0.00     0.082 H 
HETATM   41  C54 STI B1000     -11.942  -5.386 -51.766  1.00 17.97     0.095 C 
ATOM     42 3H54 STI B1000     -12.773  -5.103 -52.452  1.00  0.00     0.071 H 
ATOM     43 2H54 STI B1000     -12.303  -6.376 -51.401  1.00  0.00     0.071 H 
ATOM     44 1H54 STI B1000     -11.903  -4.668 -50.914  1.00  0.00     0.071 H 
HETATM   45  N13 STI B1000       3.358  -6.930 -49.521  1.00 22.00    -0.191 N 
HETATM   46  C9  STI B1000       3.993  -5.780 -50.097  1.00 29.27     0.683 A 
HETATM   47  N10 STI B1000       3.838  -5.463 -51.390  1.00 22.71    -0.202 N 
HETATM   48  N8  STI B1000       4.758  -5.075 -49.261  1.00 21.75    -0.191 N 
HETATM   49  C11 STI B1000       4.476  -4.366 -51.892  1.00 23.22    -0.004 A 
ATOM     50  H10 STI B1000       3.249  -6.037 -51.993  1.00  0.00     0.183 HD
HETATM   51  C12 STI B1000       5.287  -3.586 -51.058  1.00 21.32    -0.040 A 
ATOM     52  H11 STI B1000       4.354  -4.094 -52.953  1.00  0.00     0.112 H 
HETATM   53  C7  STI B1000       5.425  -3.971 -49.696  1.00 25.96     0.062 A 
ATOM     54  H12 STI B1000       5.805  -2.693 -51.449  1.00  0.00     0.089 H 
ATOM     55  H8  STI B1000       4.843  -5.367 -48.288  1.00  0.00     0.184 HD
ATOM     56  H13 STI B1000       3.459  -7.097 -48.520  1.00  0.00     0.184 HD
HETATM   57  C5  STI B1000       6.216  -3.265 -48.778  1.00 20.71     0.007 A 
HETATM   58  C4  STI B1000       6.665  -1.967 -49.099  1.00 23.66    -0.011 A 
HETATM   59  N3  STI B1000       7.417  -1.281 -48.260  1.00 21.17    -0.374 N 
ATOM     60  H4  STI B1000       6.384  -1.519 -50.066  1.00  0.00     0.112 H 
HETATM   61  C2  STI B1000       7.762  -1.772 -47.076  1.00 27.88    -0.023 A 
ATOM     62  H3  STI B1000       7.740  -0.351 -48.527  1.00  0.00     0.164 HD
HETATM   63  C1  STI B1000       7.363  -3.035 -46.690  1.00 28.67    -0.067 A 
ATOM     64  H2  STI B1000       8.376  -1.162 -46.392  1.00  0.00     0.111 H 
HETATM   65  C6  STI B1000       6.579  -3.817 -47.545  1.00 27.99    -0.068 A 
ATOM     66  H1  STI B1000       7.663  -3.430 -45.705  1.00  0.00     0.085 H 
ATOM     67  H6  STI B1000       6.259  -4.831 -47.257  1.00  0.00     0.085 H 
HETATM   68  C20 STI B1000       4.564  -9.437 -50.174  1.00 21.76    -0.049 C 
ATOM     69 3H20 STI B1000       5.023  -8.512 -49.754  1.00  0.00     0.033 H 
ATOM     70 2H20 STI B1000       4.496 -10.076 -49.262  1.00  0.00     0.033 H 
ATOM     71 1H20 STI B1000       5.281  -9.904 -50.889  1.00  0.00     0.033 H 
ENDMDL
REMARK VINA RESULT:      -6.8     13.700     14.899
REMARK  8 active torsions:
REMARK  status: ('A' for Active; 'I' for Inactive)
REMARK    1  A    between atoms: C5_5  and  C7_12 
REMARK       I    between atoms: C9_19  and  N13_22 
REMARK    2  A    between atoms: C14_24  and  N13_22 
REMARK    3  A    between atoms: C19_25  and  C20_68 
REMARK    4  A    between atoms: C16_30  and  N21_33 
REMARK       I    between atoms: C22_35  and  N21_33 
REMARK    5  A    between atoms: C22_35  and  C23_36 
REMARK    6  A    between atoms: C27_41  and  C46_46 
REMARK    7  A    between atoms: C46_46  and  N48_49 
REMARK    8  A    between atoms: C54_57  and  N51_56 
REMARK viewdock state: V
HETATM    1  C14 STI B1000       0.504   5.857 -15.691  1.00 21.26     0.057 A 
HETATM    2  C19 STI B1000      -0.464   6.454 -14.838  1.00 20.09    -0.035 A 
HETATM    3  C18 STI B1000      -1.570   7.085 -15.417  1.00 21.69    -0.073 A 
ATOM      4  H18 STI B1000      -2.340   7.546 -14.775  1.00  0.00     0.084 H 
HETATM    5  C17 STI B1000      -1.701   7.132 -16.813  1.00 21.30    -0.057 A 
ATOM      6  H17 STI B1000      -2.581   7.621 -17.263  1.00  0.00     0.086 H 
HETATM    7  C16 STI B1000      -0.715   6.560 -17.647  1.00 17.84     0.037 A 
HETATM    8  C15 STI B1000       0.374   5.886 -17.072  1.00 18.40    -0.030 A 
ATOM      9  H15 STI B1000       1.118   5.383 -17.712  1.00  0.00     0.090 H 
HETATM   10  N21 STI B1000      -0.961   6.567 -19.048  1.00 20.93    -0.323 N 
HETATM   11  C22 STI B1000      -0.996   7.746 -19.913  1.00 19.50     0.256 C 
HETATM   12  O29 STI B1000      -0.886   8.881 -19.485  1.00 16.86    -0.267 OA
ATOM     13  H21 STI B1000      -1.128   5.664 -19.492  1.00  0.00     0.169 HD
HETATM   14  C23 STI B1000      -1.154   7.486 -21.390  1.00 18.49     0.032 A 
HETATM   15  C29 STI B1000      -2.275   8.029 -22.060  1.00 19.41    -0.067 A 
HETATM   16  C28 STI B1000      -2.427   7.839 -23.438  1.00 22.05    -0.074 A 
ATOM     17  H29 STI B1000      -3.030   8.601 -21.495  1.00  0.00     0.085 H 
HETATM   18  C27 STI B1000      -1.488   7.108 -24.155  1.00 20.38    -0.030 A 
ATOM     19  H28 STI B1000      -3.298   8.273 -23.959  1.00  0.00     0.084 H 
HETATM   20  C26 STI B1000      -0.360   6.586 -23.513  1.00 21.40    -0.074 A 
HETATM   21  C25 STI B1000      -0.201   6.769 -22.142  1.00 17.25    -0.067 A 
ATOM     22  H26 STI B1000       0.398   6.031 -24.090  1.00  0.00     0.084 H 
ATOM     23  H25 STI B1000       0.684   6.348 -21.637  1.00  0.00     0.085 H 
HETATM   24  C46 STI B1000      -1.671   6.915 -25.630  1.00 19.28     0.137 C 
ATOM     25 2H46 STI B1000      -2.011   7.866 -26.103  1.00  0.00     0.087 H 
ATOM     26 1H46 STI B1000      -0.681   6.793 -26.127  1.00  0.00     0.087 H 
HETATM   27  N48 STI B1000      -2.562   5.821 -26.003  1.00 17.34     0.096 N 
HETATM   28  C49 STI B1000      -3.884   6.307 -26.494  1.00 19.05     0.138 C 
HETATM   29  C50 STI B1000      -4.867   5.149 -26.756  1.00 17.36     0.138 C 
ATOM     30 2H49 STI B1000      -3.768   6.951 -27.397  1.00  0.00     0.082 H 
ATOM     31 1H49 STI B1000      -4.323   7.058 -25.797  1.00  0.00     0.082 H 
HETATM   32  N51 STI B1000      -4.328   4.059 -27.577  1.00 18.41     0.087 N 
ATOM     33 2H50 STI B1000      -5.259   4.750 -25.792  1.00  0.00     0.082 H 
ATOM     34 1H50 STI B1000      -5.811   5.538 -27.203  1.00  0.00     0.082 H 
HETATM   35  C52 STI B1000      -3.060   3.595 -26.985  1.00 20.57     0.138 C 
HETATM   36  C53 STI B1000      -2.102   4.731 -26.868  1.00 19.08     0.138 C 
ATOM     37 2H52 STI B1000      -3.219   3.082 -26.009  1.00  0.00     0.082 H 
ATOM     38 1H52 STI B1000      -2.625   2.740 -27.552  1.00  0.00     0.082 H 
ATOM     39 2H53 STI B1000      -1.103   4.365 -26.536  1.00  0.00     0.082 H 
ATOM     40 1H53 STI B1000      -1.836   5.121 -27.878  1.00  0.00     0.082 H 
HETATM   41  C54 STI B1000      -5.283   2.994 -28.006  1.00 17.97     0.095 C 
ATOM     42 3H54 STI B1000      -5.759   3.289 -28.970  1.00  0.00     0.071 H 
ATOM     43 2H54 STI B1000      -4.713   2.091 -28.326  1.00  0.00     0.071 H 
ATOM     44 1H54 STI B1000      -6.073   2.697 -27.278  1.00  0.00     0.071 H 
HETATM   45  N13 STI B1000       1.635   5.178 -15.106  1.00 22.00    -0.191 N 
HETATM   46  C9  STI B1000       1.630   3.769 -14.839  1.00 29.27     0.683 A 
HETATM   47  N10 STI B1000       0.598   2.989 -15.189  1.00 22.71    -0.202 N 
HETATM   48  N8  STI B1000       2.708   3.308 -14.202  1.00 21.75    -0.191 N 
HETATM   49  C11 STI B1000       0.636   1.656 -14.899  1.00 23.22    -0.004 A 
ATOM     50  H10 STI B1000      -0.210   3.389 -15.668  1.00  0.00     0.183 HD
HETATM   51  C12 STI B1000       1.746   1.116 -14.238  1.00 21.32    -0.040 A 
ATOM     52  H11 STI B1000      -0.206   1.005 -15.185  1.00  0.00     0.112 H 
HETATM   53  C7  STI B1000       2.810   1.988 -13.879  1.00 25.96     0.062 A 
ATOM     54  H12 STI B1000       1.793   0.040 -14.001  1.00  0.00     0.089 H 
ATOM     55  H8  STI B1000       3.461   3.949 -13.955  1.00  0.00     0.184 HD
ATOM     56  H13 STI B1000       2.467   5.719 -14.873  1.00  0.00     0.184 HD
HETATM   57  C5  STI B1000       3.963   1.554 -13.210  1.00 20.71     0.007 A 
HETATM   58  C4  STI B1000       5.061   2.428 -13.075  1.00 23.66    -0.011 A 
HETATM   59  N3  STI B1000       6.163   2.047 -12.458  1.00 21.17    -0.374 N 
ATOM     60  H4  STI B1000       4.998   3.448 -13.492  1.00  0.00     0.112 H 
HETATM   61  C2  STI B1000       6.276   0.838 -11.923  1.00 27.88    -0.023 A 
ATOM     62  H3  STI B1000       6.947   2.697 -12.391  1.00  0.00     0.164 HD
HETATM   63  C1  STI B1000       5.246  -0.076 -12.015  1.00 28.67    -0.067 A 
ATOM     64  H2  STI B1000       7.205   0.559 -11.398  1.00  0.00     0.111 H 
HETATM   65  C6  STI B1000       4.060   0.266 -12.672  1.00 27.99    -0.068 A 
ATOM     66  H1  STI B1000       5.358  -1.079 -11.569  1.00  0.00     0.085 H 
ATOM     67  H6  STI B1000       3.230  -0.454 -12.763  1.00  0.00     0.085 H 
HETATM   68  C20 STI B1000      -0.259   6.367 -13.327  1.00 21.76    -0.049 C 
ATOM     69 3H20 STI B1000       0.144   7.340 -12.960  1.00  0.00     0.033 H 
ATOM     70 2H20 STI B1000      -1.255   6.344 -12.827  1.00  0.00     0.033 H 
ATOM     71 1H20 STI B1000       0.369   5.539 -12.920  1.00  0.00     0.033 H 
ENDMDL
