REMARK VINA RESULT:      -8.2      0.000      0.000
REMARK  8 active torsions:
REMARK  status: ('A' for Active; 'I' for Inactive)
REMARK    1  A    between atoms: CAF_7  and  NAG_42 
REMARK    2  A    between atoms: CAK_13  and  CBI_57 
REMARK    3  A    between atoms: CAN_20  and  CAQ_25 
REMARK       I    between atoms: CAQ_25  and  NAR_43 
REMARK    4  A    between atoms: CAS_26  and  NAR_43 
REMARK    5  A    between atoms: CAU_29  and  CAY_35 
REMARK    6  A    between atoms: CAW_32  and  CAZ_36 
REMARK    7  A    between atoms: CAZ_36  and  NBA_61 
REMARK    8  A    between atoms: CBG_53  and  NBD_62 
REMARK viewdock state: V
HETATM    1  CAH 5WR A1001     -12.401   5.367 -25.764  1.00 15.09     0.019 C 
ATOM      2 1HAH 5WR A1001     -12.114   6.427 -25.956  1.00  0.00     0.071 H 
ATOM      3 2HAH 5WR A1001     -12.102   5.284 -24.693  1.00  0.00     0.071 H 
HETATM    4  CAI 5WR A1001     -11.564   4.410 -26.640  1.00 16.92    -0.033 A 
HETATM    5  CAJ 5WR A1001     -12.088   3.200 -27.088  1.00 15.76    -0.045 A 
HETATM    6  CAK 5WR A1001     -13.515   2.843 -26.604  1.00 13.52    -0.016 C 
ATOM      7  HAK 5WR A1001     -13.438   2.549 -25.531  1.00  0.00     0.049 H 
HETATM    8  CAL 5WR A1001     -14.377   4.084 -26.671  1.00 13.63     0.002 C 
ATOM      9 1HAL 5WR A1001     -15.423   3.864 -26.351  1.00  0.00     0.065 H 
ATOM     10 2HAL 5WR A1001     -14.572   4.381 -27.728  1.00  0.00     0.065 H 
HETATM   11  CAM 5WR A1001     -10.269   4.854 -27.055  1.00 19.05    -0.059 A 
ATOM     12  HAM 5WR A1001      -9.870   5.824 -26.713  1.00  0.00     0.086 H 
HETATM   13  CAN 5WR A1001      -9.502   4.015 -27.922  1.00 17.04     0.033 A 
HETATM   14  CAO 5WR A1001     -10.020   2.772 -28.394  1.00 14.50    -0.067 A 
ATOM     15  HAO 5WR A1001      -9.417   2.142 -29.069  1.00  0.00     0.085 H 
HETATM   16  CAP 5WR A1001     -11.299   2.354 -27.997  1.00 15.00    -0.075 A 
ATOM     17  HAP 5WR A1001     -11.710   1.399 -28.364  1.00  0.00     0.084 H 
HETATM   18  NAG 5WR A1001     -13.818   5.191 -25.909  1.00 14.65    -0.374 N 
HETATM   19  CAQ 5WR A1001      -8.131   4.465 -28.271  1.00 13.12     0.256 C 
HETATM   20  NAR 5WR A1001      -7.148   3.470 -28.606  1.00 11.01    -0.323 N 
ATOM     21  HAR 5WR A1001      -7.431   2.491 -28.603  1.00  0.00     0.169 HD
HETATM   22  OBH 5WR A1001      -7.873   5.657 -28.203  1.00 12.67    -0.267 OA
HETATM   23  CAS 5WR A1001      -5.827   3.775 -28.934  1.00 14.56     0.036 A 
HETATM   24  CAX 5WR A1001      -5.558   4.215 -30.249  1.00 17.22    -0.046 A 
HETATM   25  CAW 5WR A1001      -4.240   4.625 -30.603  1.00 19.59    -0.017 A 
ATOM     26  HAX 5WR A1001      -6.366   4.240 -31.000  1.00  0.00     0.088 H 
HETATM   27  CAV 5WR A1001      -3.194   4.496 -29.671  1.00 16.48    -0.057 A 
HETATM   28  CAU 5WR A1001      -3.464   4.001 -28.355  1.00 15.69     0.050 A 
ATOM     29  HAV 5WR A1001      -2.165   4.776 -29.955  1.00  0.00     0.086 H 
HETATM   30  CAT 5WR A1001      -4.782   3.630 -28.001  1.00 12.53    -0.042 A 
ATOM     31  HAT 5WR A1001      -4.991   3.227 -26.996  1.00  0.00     0.088 H 
HETATM   32  CAZ 5WR A1001      -3.978   5.145 -32.012  1.00 24.88    -0.006 C 
ATOM     33  HAZ 5WR A1001      -3.811   4.457 -32.858  1.00  0.00     0.113 H 
HETATM   34  NBA 5WR A1001      -3.962   6.415 -32.174  1.00 28.47    -0.341 N 
HETATM   35  CBB 5WR A1001      -2.790   6.925 -32.657  1.00 32.25    -0.006 C 
HETATM   36  CBC 5WR A1001      -2.678   8.423 -32.370  1.00 33.42    -0.023 C 
ATOM     37  HBB 5WR A1001      -2.024   6.333 -33.185  1.00  0.00     0.113 H 
HETATM   38  NBD 5WR A1001      -3.828   9.132 -32.606  1.00 31.60    -0.272 NA
ATOM     39  HBC 5WR A1001      -1.750   8.894 -32.005  1.00  0.00     0.104 H 
HETATM   40  CBE 5WR A1001      -4.978   8.574 -32.137  1.00 28.03    -0.023 C 
HETATM   41  CBF 5WR A1001      -5.085   7.102 -32.514  1.00 27.21    -0.006 C 
ATOM     42  HBE 5WR A1001      -5.739   9.121 -31.555  1.00  0.00     0.104 H 
ATOM     43  HBF 5WR A1001      -5.965   6.649 -33.002  1.00  0.00     0.113 H 
HETATM   44  CBG 5WR A1001      -3.709  10.320 -32.142  1.00 31.88    -0.026 C 
ATOM     45 3HBG 5WR A1001      -3.420  10.323 -31.065  1.00  0.00     0.049 H 
ATOM     46 2HBG 5WR A1001      -2.812  10.842 -32.551  1.00  0.00     0.049 H 
ATOM     47 1HBG 5WR A1001      -4.647  10.894 -32.325  1.00  0.00     0.049 H 
HETATM   48  CAY 5WR A1001      -2.345   3.881 -27.245  1.00 16.56     0.417 C 
HETATM   49  F03 5WR A1001      -1.117   4.106 -27.751  1.00 18.15    -0.166 F 
HETATM   50  F01 5WR A1001      -2.616   4.713 -26.229  1.00 21.76    -0.166 F 
HETATM   51  F02 5WR A1001      -2.312   2.659 -26.740  1.00 15.58    -0.166 F 
HETATM   52  CAF 5WR A1001     -14.645   6.075 -25.101  1.00 15.49     0.061 A 
HETATM   53  CAA 5WR A1001     -14.390   6.259 -23.740  1.00 14.79     0.005 A 
HETATM   54  NAB 5WR A1001     -15.112   7.143 -23.041  1.00 16.94    -0.360 N 
ATOM     55  HAA 5WR A1001     -13.595   5.677 -23.243  1.00  0.00     0.114 H 
HETATM   56  CAC 5WR A1001     -16.098   7.848 -23.639  1.00 17.55     0.040 A 
ATOM     57  HAB 5WR A1001     -14.918   7.286 -22.051  1.00  0.00     0.166 HD
HETATM   58  NAD 5WR A1001     -16.395   7.724 -24.905  1.00 15.23    -0.360 N 
ATOM     59  HAC 5WR A1001     -16.678   8.562 -23.030  1.00  0.00     0.140 H 
HETATM   60  CAE 5WR A1001     -15.716   6.873 -25.669  1.00 14.13     0.005 A 
ATOM     61  HAD 5WR A1001     -17.149   8.279 -25.308  1.00  0.00     0.166 HD
ATOM     62  HAE 5WR A1001     -15.968   6.773 -26.738  1.00  0.00     0.114 H 
HETATM   63  CBI 5WR A1001     -14.137   1.655 -27.359  1.00 14.76    -0.067 C 
ATOM     64 3HBI 5WR A1001     -15.072   1.313 -26.857  1.00  0.00     0.028 H 
ATOM     65 2HBI 5WR A1001     -14.562   1.986 -28.335  1.00  0.00     0.028 H 
ATOM     66 1HBI 5WR A1001     -13.432   0.803 -27.504  1.00  0.00     0.028 H 
ENDMDL
REMARK VINA RESULT:      -8.2      9.157     14.093
REMARK  8 active torsions:
REMARK  status: ('A' for Active; 'I' for Inactive)
REMARK    1  A    between atoms: CAF_7  and  NAG_42 
REMARK    2  A    between atoms: CAK_13  and  CBI_57 
REMARK    3  A    between atoms: CAN_20  and  CAQ_25 
REMARK       I    between atoms: CAQ_25  and  NAR_43 
REMARK    4  A    between atoms: CAS_26  and  NAR_43 
REMARK    5  A    between atoms: CAU_29  and  CAY_35 
REMARK    6  A    between atoms: CAW_32  and  CAZ_36 
REMARK    7  A    between atoms: CAZ_36  and  NBA_61 
REMARK    8  A    between atoms: CBG_53  and  NBD_62 
REMARK viewdock state: V
HETATM    1  CAH 5WR A1001     -12.750   1.598 -25.347  1.00 15.09     0.019 C 
ATOM      2 1HAH 5WR A1001     -12.971   0.510 -25.449  1.00  0.00     0.071 H 
ATOM      3 2HAH 5WR A1001     -11.639   1.554 -25.256  1.00  0.00     0.071 H 
HETATM    4  CAI 5WR A1001     -13.381   2.164 -24.057  1.00 16.92    -0.033 A 
HETATM    5  CAJ 5WR A1001     -13.818   3.485 -23.989  1.00 15.76    -0.045 A 
HETATM    6  CAK 5WR A1001     -13.570   4.361 -25.242  1.00 13.52    -0.016 C 
ATOM      7  HAK 5WR A1001     -12.481   4.596 -25.272  1.00  0.00     0.049 H 
HETATM    8  CAL 5WR A1001     -13.890   3.547 -26.476  1.00 13.63     0.002 C 
ATOM      9 1HAL 5WR A1001     -13.747   4.150 -27.403  1.00  0.00     0.065 H 
ATOM     10 2HAL 5WR A1001     -14.985   3.353 -26.557  1.00  0.00     0.065 H 
HETATM   11  CAM 5WR A1001     -13.591   1.258 -22.970  1.00 19.05    -0.059 A 
ATOM     12  HAM 5WR A1001     -13.262   0.207 -23.041  1.00  0.00     0.086 H 
HETATM   13  CAN 5WR A1001     -14.237   1.742 -21.790  1.00 17.04     0.033 A 
HETATM   14  CAO 5WR A1001     -14.693   3.091 -21.699  1.00 14.50    -0.067 A 
ATOM     15  HAO 5WR A1001     -15.195   3.444 -20.782  1.00  0.00     0.085 H 
HETATM   16  CAP 5WR A1001     -14.500   3.967 -22.778  1.00 15.00    -0.075 A 
ATOM     17  HAP 5WR A1001     -14.857   5.008 -22.719  1.00  0.00     0.084 H 
HETATM   18  NAG 5WR A1001     -13.132   2.305 -26.536  1.00 14.65    -0.374 N 
HETATM   19  CAQ 5WR A1001     -14.369   0.802 -20.649  1.00 13.12     0.256 C 
HETATM   20  NAR 5WR A1001     -13.180   0.174 -20.137  1.00 11.01    -0.323 N 
ATOM     21  HAR 5WR A1001     -12.287   0.407 -20.569  1.00  0.00     0.169 HD
HETATM   22  OBH 5WR A1001     -15.487   0.551 -20.226  1.00 12.67    -0.267 OA
HETATM   23  CAS 5WR A1001     -13.186  -0.736 -19.081  1.00 14.56     0.036 A 
HETATM   24  CAX 5WR A1001     -13.740  -2.014 -19.313  1.00 17.22    -0.046 A 
HETATM   25  CAW 5WR A1001     -13.684  -3.007 -18.292  1.00 19.59    -0.017 A 
ATOM     26  HAX 5WR A1001     -14.215  -2.243 -20.282  1.00  0.00     0.088 H 
HETATM   27  CAV 5WR A1001     -13.168  -2.679 -17.025  1.00 16.48    -0.057 A 
HETATM   28  CAU 5WR A1001     -12.653  -1.365 -16.781  1.00 15.69     0.050 A 
ATOM     29  HAV 5WR A1001     -13.159  -3.434 -16.221  1.00  0.00     0.086 H 
HETATM   30  CAT 5WR A1001     -12.680  -0.397 -17.811  1.00 12.53    -0.042 A 
ATOM     31  HAT 5WR A1001     -12.306   0.623 -17.620  1.00  0.00     0.088 H 
HETATM   32  CAZ 5WR A1001     -14.242  -4.398 -18.579  1.00 24.88    -0.006 C 
ATOM     33  HAZ 5WR A1001     -15.246  -4.536 -19.014  1.00  0.00     0.113 H 
HETATM   34  NBA 5WR A1001     -13.496  -5.398 -18.292  1.00 28.47    -0.341 N 
HETATM   35  CBB 5WR A1001     -13.970  -6.213 -17.304  1.00 32.25    -0.006 C 
HETATM   36  CBC 5WR A1001     -12.850  -7.063 -16.703  1.00 33.42    -0.023 C 
ATOM     37  HBB 5WR A1001     -15.024  -6.254 -16.981  1.00  0.00     0.113 H 
HETATM   38  NBD 5WR A1001     -11.996  -7.609 -17.627  1.00 31.60    -0.272 NA
ATOM     39  HBC 5WR A1001     -12.738  -7.224 -15.617  1.00  0.00     0.104 H 
HETATM   40  CBE 5WR A1001     -11.572  -6.772 -18.614  1.00 28.03    -0.023 C 
HETATM   41  CBF 5WR A1001     -12.730  -6.005 -19.238  1.00 27.21    -0.006 C 
ATOM     42  HBE 5WR A1001     -10.518  -6.663 -18.923  1.00  0.00     0.104 H 
ATOM     43  HBF 5WR A1001     -12.924  -5.949 -20.323  1.00  0.00     0.113 H 
HETATM   44  CBG 5WR A1001     -10.981  -8.118 -17.032  1.00 31.88    -0.026 C 
ATOM     45 3HBG 5WR A1001     -11.273  -8.925 -16.320  1.00  0.00     0.049 H 
ATOM     46 2HBG 5WR A1001     -10.354  -8.731 -17.722  1.00  0.00     0.049 H 
ATOM     47 1HBG 5WR A1001     -10.391  -7.313 -16.535  1.00  0.00     0.049 H 
HETATM   48  CAY 5WR A1001     -12.012  -0.948 -15.397  1.00 16.56     0.417 C 
HETATM   49  F03 5WR A1001     -11.147   0.074 -15.538  1.00 18.15    -0.166 F 
HETATM   50  F01 5WR A1001     -12.979  -0.653 -14.515  1.00 21.76    -0.166 F 
HETATM   51  F02 5WR A1001     -11.316  -1.947 -14.881  1.00 15.58    -0.166 F 
HETATM   52  CAF 5WR A1001     -12.559   1.804 -27.776  1.00 15.49     0.061 A 
HETATM   53  CAA 5WR A1001     -13.252   0.894 -28.576  1.00 14.79     0.005 A 
HETATM   54  NAB 5WR A1001     -12.740   0.517 -29.754  1.00 16.94    -0.360 N 
ATOM     55  HAA 5WR A1001     -14.220   0.486 -28.238  1.00  0.00     0.114 H 
HETATM   56  CAC 5WR A1001     -11.548   0.999 -30.168  1.00 17.55     0.040 A 
ATOM     57  HAB 5WR A1001     -13.252  -0.138 -30.343  1.00  0.00     0.166 HD
HETATM   58  NAD 5WR A1001     -10.842   1.849 -29.470  1.00 15.23    -0.360 N 
ATOM     59  HAC 5WR A1001     -11.152   0.661 -31.141  1.00  0.00     0.140 H 
HETATM   60  CAE 5WR A1001     -11.289   2.279 -28.294  1.00 14.13     0.005 A 
ATOM     61  HAD 5WR A1001      -9.947   2.182 -29.827  1.00  0.00     0.166 HD
ATOM     62  HAE 5WR A1001     -10.692   2.999 -27.709  1.00  0.00     0.114 H 
HETATM   63  CBI 5WR A1001     -14.327   5.700 -25.210  1.00 14.76    -0.067 C 
ATOM     64 3HBI 5WR A1001     -14.544   6.008 -24.160  1.00  0.00     0.028 H 
ATOM     65 2HBI 5WR A1001     -13.659   6.539 -25.514  1.00  0.00     0.028 H 
ATOM     66 1HBI 5WR A1001     -15.260   5.697 -25.821  1.00  0.00     0.028 H 
ENDMDL
REMARK VINA RESULT:      -8.0     26.596     28.701
REMARK  8 active torsions:
REMARK  status: ('A' for Active; 'I' for Inactive)
REMARK    1  A    between atoms: CAF_7  and  NAG_42 
REMARK    2  A    between atoms: CAK_13  and  CBI_57 
REMARK    3  A    between atoms: CAN_20  and  CAQ_25 
REMARK       I    between atoms: CAQ_25  and  NAR_43 
REMARK    4  A    between atoms: CAS_26  and  NAR_43 
REMARK    5  A    between atoms: CAU_29  and  CAY_35 
REMARK    6  A    between atoms: CAW_32  and  CAZ_36 
REMARK    7  A    between atoms: CAZ_36  and  NBA_61 
REMARK    8  A    between atoms: CBG_53  and  NBD_62 
REMARK viewdock state: V
HETATM    1  CAH 5WR A1001     -12.699  -3.893 -54.609  1.00 15.09     0.019 C 
ATOM      2 1HAH 5WR A1001     -12.102  -4.251 -55.480  1.00  0.00     0.071 H 
ATOM      3 2HAH 5WR A1001     -12.263  -2.872 -54.493  1.00  0.00     0.071 H 
HETATM    4  CAI 5WR A1001     -12.412  -4.754 -53.361  1.00 16.92    -0.033 A 
HETATM    5  CAJ 5WR A1001     -13.393  -4.971 -52.395  1.00 15.76    -0.045 A 
HETATM    6  CAK 5WR A1001     -14.746  -4.250 -52.609  1.00 13.52    -0.016 C 
ATOM      7  HAK 5WR A1001     -14.587  -3.171 -52.377  1.00  0.00     0.049 H 
HETATM    8  CAL 5WR A1001     -15.123  -4.345 -54.071  1.00 13.63     0.002 C 
ATOM      9 1HAL 5WR A1001     -16.106  -3.857 -54.265  1.00  0.00     0.065 H 
ATOM     10 2HAL 5WR A1001     -15.387  -5.393 -54.350  1.00  0.00     0.065 H 
HETATM   11  CAM 5WR A1001     -11.138  -5.400 -53.280  1.00 19.05    -0.059 A 
ATOM     12  HAM 5WR A1001     -10.375  -5.239 -54.060  1.00  0.00     0.086 H 
HETATM   13  CAN 5WR A1001     -10.874  -6.257 -52.167  1.00 17.04     0.033 A 
HETATM   14  CAO 5WR A1001     -11.864  -6.495 -51.167  1.00 14.50    -0.067 A 
ATOM     15  HAO 5WR A1001     -11.644  -7.166 -50.320  1.00  0.00     0.085 H 
HETATM   16  CAP 5WR A1001     -13.117  -5.872 -51.266  1.00 15.00    -0.075 A 
ATOM     17  HAP 5WR A1001     -13.891  -6.057 -50.502  1.00  0.00     0.084 H 
HETATM   18  NAG 5WR A1001     -14.091  -3.813 -54.948  1.00 14.65    -0.374 N 
HETATM   19  CAQ 5WR A1001      -9.517  -6.849 -52.068  1.00 13.12     0.256 C 
HETATM   20  NAR 5WR A1001      -8.600  -6.648 -53.158  1.00 11.01    -0.323 N 
ATOM     21  HAR 5WR A1001      -8.912  -6.095 -53.955  1.00  0.00     0.169 HD
HETATM   22  OBH 5WR A1001      -9.249  -7.534 -51.092  1.00 12.67    -0.267 OA
HETATM   23  CAS 5WR A1001      -7.306  -7.170 -53.180  1.00 14.56     0.036 A 
HETATM   24  CAX 5WR A1001      -7.127  -8.466 -53.713  1.00 17.22    -0.046 A 
HETATM   25  CAW 5WR A1001      -5.812  -9.002 -53.841  1.00 19.59    -0.017 A 
ATOM     26  HAX 5WR A1001      -8.000  -9.061 -54.028  1.00  0.00     0.088 H 
HETATM   27  CAV 5WR A1001      -4.711  -8.280 -53.346  1.00 16.48    -0.057 A 
HETATM   28  CAU 5WR A1001      -4.906  -6.988 -52.761  1.00 15.69     0.050 A 
ATOM     29  HAV 5WR A1001      -3.697  -8.710 -53.408  1.00  0.00     0.086 H 
HETATM   30  CAT 5WR A1001      -6.210  -6.448 -52.670  1.00 12.53    -0.042 A 
ATOM     31  HAT 5WR A1001      -6.368  -5.463 -52.200  1.00  0.00     0.088 H 
HETATM   32  CAZ 5WR A1001      -5.632 -10.382 -54.465  1.00 24.88    -0.006 C 
ATOM     33  HAZ 5WR A1001      -6.238 -10.706 -55.328  1.00  0.00     0.113 H 
HETATM   34  NBA 5WR A1001      -4.749 -11.149 -53.945  1.00 28.47    -0.341 N 
HETATM   35  CBB 5WR A1001      -5.207 -11.986 -52.968  1.00 32.25    -0.006 C 
HETATM   36  CBC 5WR A1001      -4.061 -12.495 -52.092  1.00 33.42    -0.023 C 
ATOM     37  HBB 5WR A1001      -6.266 -12.260 -52.827  1.00  0.00     0.113 H 
HETATM   38  NBD 5WR A1001      -2.944 -12.878 -52.790  1.00 31.60    -0.272 NA
ATOM     39  HBC 5WR A1001      -4.127 -12.549 -50.992  1.00  0.00     0.104 H 
HETATM   40  CBE 5WR A1001      -2.538 -12.032 -53.777  1.00 28.03    -0.023 C 
HETATM   41  CBF 5WR A1001      -3.698 -11.615 -54.672  1.00 27.21    -0.006 C 
ATOM     42  HBE 5WR A1001      -1.498 -11.692 -53.912  1.00  0.00     0.104 H 
ATOM     43  HBF 5WR A1001      -3.686 -11.681 -55.773  1.00  0.00     0.113 H 
HETATM   44  CBG 5WR A1001      -1.974 -13.083 -51.977  1.00 31.88    -0.026 C 
ATOM     45 3HBG 5WR A1001      -1.865 -14.162 -51.718  1.00  0.00     0.049 H 
ATOM     46 2HBG 5WR A1001      -0.981 -12.933 -52.462  1.00  0.00     0.049 H 
ATOM     47 1HBG 5WR A1001      -2.099 -12.445 -51.071  1.00  0.00     0.049 H 
HETATM   48  CAY 5WR A1001      -3.707  -6.103 -52.234  1.00 16.56     0.417 C 
HETATM   49  F03 5WR A1001      -4.023  -4.794 -52.218  1.00 18.15    -0.166 F 
HETATM   50  F01 5WR A1001      -3.323  -6.529 -51.022  1.00 21.76    -0.166 F 
HETATM   51  F02 5WR A1001      -2.655  -6.214 -53.029  1.00 15.58    -0.166 F 
HETATM   52  CAF 5WR A1001     -14.406  -3.009 -56.121  1.00 15.49     0.061 A 
HETATM   53  CAA 5WR A1001     -15.708  -2.567 -56.364  1.00 14.79     0.005 A 
HETATM   54  NAB 5WR A1001     -15.953  -1.757 -57.402  1.00 16.94    -0.360 N 
ATOM     55  HAA 5WR A1001     -16.532  -2.883 -55.702  1.00  0.00     0.114 H 
HETATM   56  CAC 5WR A1001     -14.952  -1.378 -58.226  1.00 17.55     0.040 A 
ATOM     57  HAB 5WR A1001     -16.901  -1.425 -57.572  1.00  0.00     0.166 HD
HETATM   58  NAD 5WR A1001     -13.713  -1.758 -58.062  1.00 15.23    -0.360 N 
ATOM     59  HAC 5WR A1001     -15.192  -0.717 -59.076  1.00  0.00     0.140 H 
HETATM   60  CAE 5WR A1001     -13.387  -2.554 -57.048  1.00 14.13     0.005 A 
ATOM     61  HAD 5WR A1001     -12.994  -1.443 -58.714  1.00  0.00     0.166 HD
ATOM     62  HAE 5WR A1001     -12.339  -2.869 -56.911  1.00  0.00     0.114 H 
HETATM   63  CBI 5WR A1001     -15.863  -4.758 -51.680  1.00 14.76    -0.067 C 
ATOM     64 3HBI 5WR A1001     -16.302  -5.705 -52.071  1.00  0.00     0.028 H 
ATOM     65 2HBI 5WR A1001     -15.438  -5.132 -50.720  1.00  0.00     0.028 H 
ATOM     66 1HBI 5WR A1001     -16.660  -4.001 -51.491  1.00  0.00     0.028 H 
ENDMDL
REMARK VINA RESULT:      -8.0      8.949     13.017
REMARK  8 active torsions:
REMARK  status: ('A' for Active; 'I' for Inactive)
REMARK    1  A    between atoms: CAF_7  and  NAG_42 
REMARK    2  A    between atoms: CAK_13  and  CBI_57 
REMARK    3  A    between atoms: CAN_20  and  CAQ_25 
REMARK       I    between atoms: CAQ_25  and  NAR_43 
REMARK    4  A    between atoms: CAS_26  and  NAR_43 
REMARK    5  A    between atoms: CAU_29  and  CAY_35 
REMARK    6  A    between atoms: CAW_32  and  CAZ_36 
REMARK    7  A    between atoms: CAZ_36  and  NBA_61 
REMARK    8  A    between atoms: CBG_53  and  NBD_62 
REMARK viewdock state: V
HETATM    1  CAH 5WR A1001      -3.351   7.987 -35.074  1.00 15.09     0.019 C 
ATOM      2 1HAH 5WR A1001      -3.313   9.006 -34.623  1.00  0.00     0.071 H 
ATOM      3 2HAH 5WR A1001      -3.465   7.377 -34.147  1.00  0.00     0.071 H 
HETATM    4  CAI 5WR A1001      -2.021   7.655 -35.784  1.00 16.92    -0.033 A 
HETATM    5  CAJ 5WR A1001      -1.990   6.827 -36.903  1.00 15.76    -0.045 A 
HETATM    6  CAK 5WR A1001      -3.339   6.209 -37.345  1.00 13.52    -0.016 C 
ATOM      7  HAK 5WR A1001      -3.594   5.409 -36.611  1.00  0.00     0.049 H 
HETATM    8  CAL 5WR A1001      -4.415   7.268 -37.247  1.00 13.63     0.002 C 
ATOM      9 1HAL 5WR A1001      -5.402   6.870 -37.579  1.00  0.00     0.065 H 
ATOM     10 2HAL 5WR A1001      -4.272   8.059 -38.021  1.00  0.00     0.065 H 
HETATM   11  CAM 5WR A1001      -0.838   8.306 -35.312  1.00 19.05    -0.059 A 
ATOM     12  HAM 5WR A1001      -0.876   8.979 -34.437  1.00  0.00     0.086 H 
HETATM   13  CAN 5WR A1001       0.395   8.069 -35.996  1.00 17.04     0.033 A 
HETATM   14  CAO 5WR A1001       0.449   7.225 -37.145  1.00 14.50    -0.067 A 
ATOM     15  HAO 5WR A1001       1.408   7.059 -37.664  1.00  0.00     0.085 H 
HETATM   16  CAP 5WR A1001      -0.720   6.606 -37.612  1.00 15.00    -0.075 A 
ATOM     17  HAP 5WR A1001      -0.688   5.959 -38.505  1.00  0.00     0.084 H 
HETATM   18  NAG 5WR A1001      -4.505   7.849 -35.915  1.00 14.65    -0.374 N 
HETATM   19  CAQ 5WR A1001       1.618   8.693 -35.435  1.00 13.12     0.256 C 
HETATM   20  NAR 5WR A1001       2.899   8.188 -35.853  1.00 11.01    -0.323 N 
ATOM     21  HAR 5WR A1001       2.920   7.426 -36.529  1.00  0.00     0.169 HD
HETATM   22  OBH 5WR A1001       1.493   9.572 -34.596  1.00 12.67    -0.267 OA
HETATM   23  CAS 5WR A1001       4.113   8.687 -35.381  1.00 14.56     0.036 A 
HETATM   24  CAX 5WR A1001       4.757   9.687 -36.143  1.00 17.22    -0.046 A 
HETATM   25  CAW 5WR A1001       5.952  10.291 -35.654  1.00 19.59    -0.017 A 
ATOM     26  HAX 5WR A1001       4.337   9.998 -37.115  1.00  0.00     0.088 H 
HETATM   27  CAV 5WR A1001       6.536   9.820 -34.464  1.00 16.48    -0.057 A 
HETATM   28  CAU 5WR A1001       5.904   8.771 -33.722  1.00 15.69     0.050 A 
ATOM     29  HAV 5WR A1001       7.482  10.259 -34.104  1.00  0.00     0.086 H 
HETATM   30  CAT 5WR A1001       4.701   8.202 -34.197  1.00 12.53    -0.042 A 
ATOM     31  HAT 5WR A1001       4.223   7.378 -33.640  1.00  0.00     0.088 H 
HETATM   32  CAZ 5WR A1001       6.606  11.404 -36.466  1.00 24.88    -0.006 C 
ATOM     33  HAZ 5WR A1001       7.603  11.797 -36.204  1.00  0.00     0.113 H 
HETATM   34  NBA 5WR A1001       5.949  11.865 -37.463  1.00 28.47    -0.341 N 
HETATM   35  CBB 5WR A1001       5.318  13.057 -37.245  1.00 32.25    -0.006 C 
HETATM   36  CBC 5WR A1001       4.204  13.289 -38.267  1.00 33.42    -0.023 C 
ATOM     37  HBB 5WR A1001       5.579  13.761 -36.438  1.00  0.00     0.113 H 
HETATM   38  NBD 5WR A1001       4.545  12.973 -39.558  1.00 31.60    -0.272 NA
ATOM     39  HBC 5WR A1001       3.210  13.677 -37.990  1.00  0.00     0.104 H 
HETATM   40  CBE 5WR A1001       5.201  11.792 -39.728  1.00 28.03    -0.023 C 
HETATM   41  CBF 5WR A1001       6.352  11.639 -38.743  1.00 27.21    -0.006 C 
ATOM     42  HBE 5WR A1001       4.931  11.038 -40.488  1.00  0.00     0.104 H 
ATOM     43  HBF 5WR A1001       7.384  11.376 -39.031  1.00  0.00     0.113 H 
HETATM   44  CBG 5WR A1001       3.500  12.994 -40.300  1.00 31.88    -0.026 C 
ATOM     45 3HBG 5WR A1001       3.605  13.708 -41.150  1.00  0.00     0.049 H 
ATOM     46 2HBG 5WR A1001       3.386  12.055 -40.890  1.00  0.00     0.049 H 
ATOM     47 1HBG 5WR A1001       2.600  13.211 -39.679  1.00  0.00     0.049 H 
HETATM   48  CAY 5WR A1001       6.482   8.233 -32.352  1.00 16.56     0.417 C 
HETATM   49  F03 5WR A1001       5.594   7.447 -31.713  1.00 18.15    -0.166 F 
HETATM   50  F01 5WR A1001       7.640   7.590 -32.565  1.00 21.76    -0.166 F 
HETATM   51  F02 5WR A1001       6.745   9.232 -31.527  1.00 15.58    -0.166 F 
HETATM   52  CAF 5WR A1001      -5.782   8.152 -35.285  1.00 15.49     0.061 A 
HETATM   53  CAA 5WR A1001      -5.984   9.357 -34.608  1.00 14.79     0.005 A 
HETATM   54  NAB 5WR A1001      -7.194   9.647 -34.114  1.00 16.94    -0.360 N 
ATOM     55  HAA 5WR A1001      -5.150  10.067 -34.481  1.00  0.00     0.114 H 
HETATM   56  CAC 5WR A1001      -8.218   8.776 -34.251  1.00 17.55     0.040 A 
ATOM     57  HAB 5WR A1001      -7.345  10.531 -33.630  1.00  0.00     0.166 HD
HETATM   58  NAD 5WR A1001      -8.099   7.630 -34.867  1.00 15.23    -0.360 N 
ATOM     59  HAC 5WR A1001      -9.199   9.044 -33.824  1.00  0.00     0.140 H 
HETATM   60  CAE 5WR A1001      -6.931   7.274 -35.394  1.00 14.13     0.005 A 
ATOM     61  HAD 5WR A1001      -8.903   7.007 -34.943  1.00  0.00     0.166 HD
ATOM     62  HAE 5WR A1001      -6.836   6.307 -35.917  1.00  0.00     0.114 H 
HETATM   63  CBI 5WR A1001      -3.285   5.554 -38.736  1.00 14.76    -0.067 C 
ATOM     64 3HBI 5WR A1001      -2.885   6.267 -39.494  1.00  0.00     0.028 H 
ATOM     65 2HBI 5WR A1001      -2.489   4.775 -38.775  1.00  0.00     0.028 H 
ATOM     66 1HBI 5WR A1001      -4.264   5.135 -39.067  1.00  0.00     0.028 H 
ENDMDL
REMARK VINA RESULT:      -8.0      5.881      8.989
REMARK  8 active torsions:
REMARK  status: ('A' for Active; 'I' for Inactive)
REMARK    1  A    between atoms: CAF_7  and  NAG_42 
REMARK    2  A    between atoms: CAK_13  and  CBI_57 
REMARK    3  A    between atoms: CAN_20  and  CAQ_25 
REMARK       I    between atoms: CAQ_25  and  NAR_43 
REMARK    4  A    between atoms: CAS_26  and  NAR_43 
REMARK    5  A    between atoms: CAU_29  and  CAY_35 
REMARK    6  A    between atoms: CAW_32  and  CAZ_36 
REMARK    7  A    between atoms: CAZ_36  and  NBA_61 
REMARK    8  A    between atoms: CBG_53  and  NBD_62 
REMARK viewdock state: V
HETATM    1  CAH 5WR A1001      -6.746   7.245 -31.078  1.00 15.09     0.019 C 
ATOM      2 1HAH 5WR A1001      -5.703   7.203 -30.688  1.00  0.00     0.071 H 
ATOM      3 2HAH 5WR A1001      -6.953   6.153 -31.176  1.00  0.00     0.071 H 
HETATM    4  CAI 5WR A1001      -6.784   7.932 -32.460  1.00 16.92    -0.033 A 
HETATM    5  CAJ 5WR A1001      -7.893   8.670 -32.867  1.00 15.76    -0.045 A 
HETATM    6  CAK 5WR A1001      -9.098   8.700 -31.896  1.00 13.52    -0.016 C 
ATOM      7  HAK 5WR A1001      -9.593   7.702 -31.949  1.00  0.00     0.049 H 
HETATM    8  CAL 5WR A1001      -8.582   8.873 -30.484  1.00 13.63     0.002 C 
ATOM      9 1HAL 5WR A1001      -9.422   8.923 -29.753  1.00  0.00     0.065 H 
ATOM     10 2HAL 5WR A1001      -8.154   9.892 -30.335  1.00  0.00     0.065 H 
HETATM   11  CAM 5WR A1001      -5.603   7.867 -33.265  1.00 19.05    -0.059 A 
ATOM     12  HAM 5WR A1001      -4.721   7.298 -32.925  1.00  0.00     0.086 H 
HETATM   13  CAN 5WR A1001      -5.589   8.553 -34.519  1.00 17.04     0.033 A 
HETATM   14  CAO 5WR A1001      -6.714   9.315 -34.955  1.00 14.50    -0.067 A 
ATOM     15  HAO 5WR A1001      -6.682   9.844 -35.923  1.00  0.00     0.085 H 
HETATM   16  CAP 5WR A1001      -7.860   9.390 -34.150  1.00 15.00    -0.075 A 
ATOM     17  HAP 5WR A1001      -8.730   9.984 -34.476  1.00  0.00     0.084 H 
HETATM   18  NAG 5WR A1001      -7.624   7.842 -30.113  1.00 14.65    -0.374 N 
HETATM   19  CAQ 5WR A1001      -4.381   8.401 -35.368  1.00 13.12     0.256 C 
HETATM   20  NAR 5WR A1001      -3.442   7.361 -35.042  1.00 11.01    -0.323 N 
ATOM     21  HAR 5WR A1001      -3.645   6.758 -34.247  1.00  0.00     0.169 HD
HETATM   22  OBH 5WR A1001      -4.200   9.200 -36.273  1.00 12.67    -0.267 OA
HETATM   23  CAS 5WR A1001      -2.267   7.136 -35.759  1.00 14.56     0.036 A 
HETATM   24  CAX 5WR A1001      -2.303   6.188 -36.805  1.00 17.22    -0.046 A 
HETATM   25  CAW 5WR A1001      -1.153   5.991 -37.624  1.00 19.59    -0.017 A 
ATOM     26  HAX 5WR A1001      -3.219   5.601 -36.988  1.00  0.00     0.088 H 
HETATM   27  CAV 5WR A1001       0.043   6.669 -37.323  1.00 16.48    -0.057 A 
HETATM   28  CAU 5WR A1001       0.087   7.592 -36.230  1.00 15.69     0.050 A 
ATOM     29  HAV 5WR A1001       0.946   6.490 -37.931  1.00  0.00     0.086 H 
HETATM   30  CAT 5WR A1001      -1.069   7.807 -35.445  1.00 12.53    -0.042 A 
ATOM     31  HAT 5WR A1001      -1.033   8.500 -34.587  1.00  0.00     0.088 H 
HETATM   32  CAZ 5WR A1001      -1.227   5.001 -38.781  1.00 24.88    -0.006 C 
ATOM     33  HAZ 5WR A1001      -0.321   4.514 -39.180  1.00  0.00     0.113 H 
HETATM   34  NBA 5WR A1001      -2.384   4.757 -39.270  1.00 28.47    -0.341 N 
HETATM   35  CBB 5WR A1001      -3.020   5.832 -39.824  1.00 32.25    -0.006 C 
HETATM   36  CBC 5WR A1001      -4.525   5.586 -39.937  1.00 33.42    -0.023 C 
ATOM     37  HBB 5WR A1001      -2.515   6.757 -40.147  1.00  0.00     0.113 H 
HETATM   38  NBD 5WR A1001      -4.862   4.338 -40.397  1.00 31.60    -0.272 NA
ATOM     39  HBC 5WR A1001      -5.278   6.348 -39.672  1.00  0.00     0.104 H 
HETATM   40  CBE 5WR A1001      -4.182   3.296 -39.843  1.00 28.03    -0.023 C 
HETATM   41  CBF 5WR A1001      -2.681   3.550 -39.823  1.00 27.21    -0.006 C 
ATOM     42  HBE 5WR A1001      -4.661   2.381 -39.456  1.00  0.00     0.104 H 
ATOM     43  HBF 5WR A1001      -1.927   2.843 -40.209  1.00  0.00     0.113 H 
HETATM   44  CBG 5WR A1001      -6.122   4.150 -40.257  1.00 31.88    -0.026 C 
ATOM     45 3HBG 5WR A1001      -6.346   3.237 -39.657  1.00  0.00     0.049 H 
ATOM     46 2HBG 5WR A1001      -6.587   4.906 -39.583  1.00  0.00     0.049 H 
ATOM     47 1HBG 5WR A1001      -6.613   4.123 -41.258  1.00  0.00     0.049 H 
HETATM   48  CAY 5WR A1001       1.383   8.424 -35.871  1.00 16.56     0.417 C 
HETATM   49  F03 5WR A1001       1.335   8.902 -34.613  1.00 18.15    -0.166 F 
HETATM   50  F01 5WR A1001       2.477   7.674 -36.069  1.00 21.76    -0.166 F 
HETATM   51  F02 5WR A1001       1.496   9.481 -36.659  1.00 15.58    -0.166 F 
HETATM   52  CAF 5WR A1001      -7.620   7.224 -28.794  1.00 15.49     0.061 A 
HETATM   53  CAA 5WR A1001      -7.321   5.870 -28.633  1.00 14.79     0.005 A 
HETATM   54  NAB 5WR A1001      -7.239   5.349 -27.402  1.00 16.94    -0.360 N 
ATOM     55  HAA 5WR A1001      -7.154   5.231 -29.516  1.00  0.00     0.114 H 
HETATM   56  CAC 5WR A1001      -7.458   6.120 -26.315  1.00 17.55     0.040 A 
ATOM     57  HAB 5WR A1001      -7.009   4.363 -27.284  1.00  0.00     0.166 HD
HETATM   58  NAD 5WR A1001      -7.747   7.392 -26.392  1.00 15.23    -0.360 N 
ATOM     59  HAC 5WR A1001      -7.390   5.655 -25.317  1.00  0.00     0.140 H 
HETATM   60  CAE 5WR A1001      -7.837   7.986 -27.578  1.00 14.13     0.005 A 
ATOM     61  HAD 5WR A1001      -7.904   7.931 -25.540  1.00  0.00     0.166 HD
ATOM     62  HAE 5WR A1001      -8.077   9.060 -27.638  1.00  0.00     0.114 H 
HETATM   63  CBI 5WR A1001     -10.156   9.755 -32.267  1.00 14.76    -0.067 C 
ATOM     64 3HBI 5WR A1001     -10.501  10.305 -31.360  1.00  0.00     0.028 H 
ATOM     65 2HBI 5WR A1001      -9.693  10.597 -32.830  1.00  0.00     0.028 H 
ATOM     66 1HBI 5WR A1001     -11.024   9.334 -32.827  1.00  0.00     0.028 H 
ENDMDL
