REMARK VINA RESULT:      -9.2      0.000      0.000
REMARK  9 active torsions:
REMARK  status: ('A' for Active; 'I' for Inactive)
REMARK    1  A    between atoms: C20_17  and  N3_3 
REMARK    2  A    between atoms: C4_4  and  C5_5 
REMARK    3  A    between atoms: C11_44  and  C6_6 
REMARK    4  A    between atoms: C13_13  and  N2_50 
REMARK    5  A    between atoms: C17_16  and  C19_57 
REMARK    6  A    between atoms: C16_54  and  C20_17 
REMARK    7  A    between atoms: C2_41  and  C3_42 
REMARK    8  A    between atoms: C12_48  and  C9_43 
REMARK       I    between atoms: C12_48  and  N2_50 
REMARK    9  A    between atoms: C25_64  and  N4_68 
REMARK viewdock state: V
HETATM    1  C13 0LI B1000      -9.964   3.907 -28.104  1.00 13.05     0.035 A 
HETATM    2  C15 0LI B1000     -11.696   4.364 -26.516  1.00 13.31    -0.072 A 
ATOM      3  H15 0LI B1000     -12.130   5.016 -25.740  1.00  0.00     0.084 H 
HETATM    4  C17 0LI B1000     -11.862   2.357 -27.882  1.00 14.02     0.058 A 
HETATM    5  C14 0LI B1000     -10.472   4.704 -27.112  1.00 13.18    -0.057 A 
ATOM      6  H14 0LI B1000      -9.925   5.604 -26.785  1.00  0.00     0.086 H 
HETATM    7  C16 0LI B1000     -12.372   3.191 -26.908  1.00 13.67    -0.015 A 
HETATM    8  C18 0LI B1000     -10.640   2.717 -28.452  1.00 13.70    -0.042 A 
ATOM      9  H18 0LI B1000     -10.184   2.046 -29.201  1.00  0.00     0.088 H 
HETATM   10  N2  0LI B1000      -8.670   4.138 -28.712  1.00 14.03    -0.323 N 
HETATM   11  C12 0LI B1000      -7.367   3.993 -28.135  1.00 14.79     0.256 C 
HETATM   12  O1  0LI B1000      -7.232   3.680 -26.968  1.00 15.10    -0.267 OA
ATOM     13  H2  0LI B1000      -8.689   4.445 -29.684  1.00  0.00     0.169 HD
HETATM   14  C9  0LI B1000      -6.126   4.409 -28.916  1.00 14.27     0.033 A 
HETATM   15  C10 0LI B1000      -6.261   5.322 -29.948  1.00 13.71    -0.049 A 
HETATM   16  C5  0LI B1000      -5.096   5.648 -30.739  1.00 14.00     0.025 A 
ATOM     17  H10 0LI B1000      -7.236   5.790 -30.162  1.00  0.00     0.087 H 
HETATM   18  C6  0LI B1000      -3.914   5.011 -30.617  1.00 14.10    -0.043 A 
HETATM   19  C7  0LI B1000      -3.801   4.056 -29.611  1.00 13.80    -0.075 A 
HETATM   20  C8  0LI B1000      -4.899   3.738 -28.792  1.00 14.64    -0.067 A 
ATOM     21  H7  0LI B1000      -2.838   3.542 -29.454  1.00  0.00     0.084 H 
ATOM     22  H8  0LI B1000      -4.793   2.943 -28.035  1.00  0.00     0.085 H 
HETATM   23  C4  0LI B1000      -5.412   6.659 -31.782  1.00 12.76    -0.059 C 
HETATM   24  C3  0LI B1000      -5.606   7.455 -32.579  1.00 12.61    -0.040 C 
HETATM   25  C2  0LI B1000      -5.785   8.491 -33.610  1.00 12.19     0.127 A 
HETATM   26  C1  0LI B1000      -7.093   8.702 -34.075  1.00 12.96     0.015 A 
HETATM   27  N1  0LI B1000      -7.058   9.679 -34.971  1.00 13.63    -0.348 N 
ATOM     28  H1  0LI B1000      -7.992   8.151 -33.752  1.00  0.00     0.116 H 
HETATM   29  C84 0LI B1000      -5.765  10.124 -35.038  1.00 12.69     0.128 A 
ATOM     30  H1  0LI B1000      -7.848  10.034 -35.510  1.00  0.00     0.167 HD
HETATM   31  C81 0LI B1000      -5.177  11.136 -35.812  1.00 12.55    -0.037 A 
HETATM   32  N82 0LI B1000      -4.981   9.376 -34.188  1.00 11.81    -0.231 N 
HETATM   33  C82 0LI B1000      -3.842  11.344 -35.680  1.00 13.14    -0.063 A 
ATOM     34  H81 0LI B1000      -5.780  11.744 -36.507  1.00  0.00     0.089 H 
HETATM   35  C83 0LI B1000      -3.106  10.583 -34.813  1.00 13.02    -0.005 A 
ATOM     36  H82 0LI B1000      -3.348  12.130 -36.275  1.00  0.00     0.085 H 
HETATM   37  N81 0LI B1000      -3.669   9.608 -34.067  1.00 12.60    -0.303 N 
ATOM     38  H83 0LI B1000      -2.024  10.772 -34.719  1.00  0.00     0.113 H 
ATOM     39  H81 0LI B1000      -3.102   9.057 -33.423  1.00  0.00     0.186 HD
HETATM   40  C11 0LI B1000      -2.760   5.395 -31.520  1.00 14.69    -0.050 C 
ATOM     41 3H11 0LI B1000      -2.331   6.358 -31.157  1.00  0.00     0.033 H 
ATOM     42 2H11 0LI B1000      -1.916   4.692 -31.334  1.00  0.00     0.033 H 
ATOM     43 1H11 0LI B1000      -2.924   5.472 -32.620  1.00  0.00     0.033 H 
HETATM   44  C19 0LI B1000     -12.562   1.079 -28.375  1.00 15.34     0.418 C 
HETATM   45  F1  0LI B1000     -12.890   0.266 -27.355  1.00 13.89    -0.166 F 
HETATM   46  F2  0LI B1000     -11.844   0.433 -29.346  1.00 14.94    -0.166 F 
HETATM   47  F3  0LI B1000     -13.701   1.429 -28.958  1.00 15.20    -0.166 F 
HETATM   48  C20 0LI B1000     -13.710   2.948 -26.179  1.00 13.13     0.138 C 
ATOM     49 2H20 0LI B1000     -14.435   3.766 -26.401  1.00  0.00     0.087 H 
ATOM     50 1H20 0LI B1000     -14.257   2.089 -26.632  1.00  0.00     0.087 H 
HETATM   51  N3  0LI B1000     -13.556   2.763 -24.717  1.00 12.51     0.096 N 
HETATM   52  C21 0LI B1000     -13.336   1.318 -24.392  1.00 13.14     0.138 C 
HETATM   53  C22 0LI B1000     -13.163   1.131 -22.876  1.00 13.76     0.138 C 
ATOM     54 2H21 0LI B1000     -14.148   0.672 -24.801  1.00  0.00     0.082 H 
ATOM     55 1H21 0LI B1000     -12.480   0.890 -24.964  1.00  0.00     0.082 H 
HETATM   56  N4  0LI B1000     -14.257   1.723 -22.094  1.00 13.82     0.087 N 
ATOM     57 2H22 0LI B1000     -13.030   0.053 -22.621  1.00  0.00     0.082 H 
ATOM     58 1H22 0LI B1000     -12.175   1.521 -22.537  1.00  0.00     0.082 H 
HETATM   59  C23 0LI B1000     -14.489   3.133 -22.417  1.00 12.77     0.138 C 
HETATM   60  C24 0LI B1000     -14.619   3.347 -23.913  1.00 13.05     0.138 C 
ATOM     61 2H23 0LI B1000     -15.373   3.537 -21.869  1.00  0.00     0.082 H 
ATOM     62 1H23 0LI B1000     -13.700   3.788 -21.979  1.00  0.00     0.082 H 
ATOM     63 2H24 0LI B1000     -15.612   2.984 -24.267  1.00  0.00     0.082 H 
ATOM     64 1H24 0LI B1000     -14.717   4.434 -24.137  1.00  0.00     0.082 H 
HETATM   65  C25 0LI B1000     -14.019   1.514 -20.668  1.00 13.74     0.095 C 
ATOM     66 3H25 0LI B1000     -14.971   1.438 -20.092  1.00  0.00     0.071 H 
ATOM     67 2H25 0LI B1000     -13.619   0.496 -20.456  1.00  0.00     0.071 H 
ATOM     68 1H25 0LI B1000     -13.353   2.316 -20.272  1.00  0.00     0.071 H 
ENDMDL
REMARK VINA RESULT:      -8.9      1.582      2.506
REMARK  9 active torsions:
REMARK  status: ('A' for Active; 'I' for Inactive)
REMARK    1  A    between atoms: C20_17  and  N3_3 
REMARK    2  A    between atoms: C4_4  and  C5_5 
REMARK    3  A    between atoms: C11_44  and  C6_6 
REMARK    4  A    between atoms: C13_13  and  N2_50 
REMARK    5  A    between atoms: C17_16  and  C19_57 
REMARK    6  A    between atoms: C16_54  and  C20_17 
REMARK    7  A    between atoms: C2_41  and  C3_42 
REMARK    8  A    between atoms: C12_48  and  C9_43 
REMARK       I    between atoms: C12_48  and  N2_50 
REMARK    9  A    between atoms: C25_64  and  N4_68 
REMARK viewdock state: V
HETATM    1  C13 0LI B1000      -9.719   4.009 -28.169  1.00 13.05     0.035 A 
HETATM    2  C15 0LI B1000     -11.391   4.397 -26.500  1.00 13.31    -0.072 A 
ATOM      3  H15 0LI B1000     -11.782   5.001 -25.664  1.00  0.00     0.084 H 
HETATM    4  C17 0LI B1000     -11.661   2.507 -28.008  1.00 14.02     0.058 A 
HETATM    5  C14 0LI B1000     -10.173   4.744 -27.104  1.00 13.18    -0.057 A 
ATOM      6  H14 0LI B1000      -9.587   5.598 -26.726  1.00  0.00     0.086 H 
HETATM    7  C16 0LI B1000     -12.116   3.280 -26.959  1.00 13.67    -0.015 A 
HETATM    8  C18 0LI B1000     -10.443   2.871 -28.585  1.00 13.70    -0.042 A 
ATOM      9  H18 0LI B1000     -10.032   2.246 -29.396  1.00  0.00     0.088 H 
HETATM   10  N2  0LI B1000      -8.435   4.246 -28.795  1.00 14.03    -0.323 N 
HETATM   11  C12 0LI B1000      -7.122   4.039 -28.262  1.00 14.79     0.256 C 
HETATM   12  O1  0LI B1000      -6.966   3.657 -27.118  1.00 15.10    -0.267 OA
ATOM     13  H2  0LI B1000      -8.471   4.608 -29.748  1.00  0.00     0.169 HD
HETATM   14  C9  0LI B1000      -5.891   4.471 -29.050  1.00 14.27     0.033 A 
HETATM   15  C10 0LI B1000      -6.039   5.406 -30.060  1.00 13.71    -0.049 A 
HETATM   16  C5  0LI B1000      -4.884   5.748 -30.859  1.00 14.00     0.025 A 
ATOM     17  H10 0LI B1000      -7.016   5.878 -30.251  1.00  0.00     0.087 H 
HETATM   18  C6  0LI B1000      -3.701   5.108 -30.765  1.00 14.10    -0.043 A 
HETATM   19  C7  0LI B1000      -3.575   4.131 -29.781  1.00 13.80    -0.075 A 
HETATM   20  C8  0LI B1000      -4.663   3.797 -28.956  1.00 14.64    -0.067 A 
ATOM     21  H7  0LI B1000      -2.611   3.614 -29.648  1.00  0.00     0.084 H 
ATOM     22  H8  0LI B1000      -4.548   2.986 -28.217  1.00  0.00     0.085 H 
HETATM   23  C4  0LI B1000      -5.212   6.781 -31.876  1.00 12.76    -0.059 C 
HETATM   24  C3  0LI B1000      -5.414   7.589 -32.659  1.00 12.61    -0.040 C 
HETATM   25  C2  0LI B1000      -5.603   8.630 -33.683  1.00 12.19     0.127 A 
HETATM   26  C1  0LI B1000      -6.910   8.816 -34.163  1.00 12.96     0.015 A 
HETATM   27  N1  0LI B1000      -6.885   9.802 -35.049  1.00 13.63    -0.348 N 
ATOM     28  H1  0LI B1000      -7.800   8.242 -33.857  1.00  0.00     0.116 H 
HETATM   29  C84 0LI B1000      -5.602  10.277 -35.096  1.00 12.69     0.128 A 
ATOM     30  H1  0LI B1000      -7.677  10.144 -35.595  1.00  0.00     0.167 HD
HETATM   31  C81 0LI B1000      -5.027  11.309 -35.853  1.00 12.55    -0.037 A 
HETATM   32  N82 0LI B1000      -4.812   9.538 -34.243  1.00 11.81    -0.231 N 
HETATM   33  C82 0LI B1000      -3.699  11.545 -35.702  1.00 13.14    -0.063 A 
ATOM     34  H81 0LI B1000      -5.635  11.909 -36.550  1.00  0.00     0.089 H 
HETATM   35  C83 0LI B1000      -2.958  10.793 -34.832  1.00 13.02    -0.005 A 
ATOM     36  H82 0LI B1000      -3.215  12.348 -36.283  1.00  0.00     0.085 H 
HETATM   37  N81 0LI B1000      -3.507   9.798 -34.103  1.00 12.60    -0.303 N 
ATOM     38  H83 0LI B1000      -1.881  11.005 -34.723  1.00  0.00     0.113 H 
ATOM     39  H81 0LI B1000      -2.937   9.253 -33.457  1.00  0.00     0.186 HD
HETATM   40  C11 0LI B1000      -2.559   5.511 -31.675  1.00 14.69    -0.050 C 
ATOM     41 3H11 0LI B1000      -2.466   4.750 -32.485  1.00  0.00     0.033 H 
ATOM     42 2H11 0LI B1000      -2.866   6.413 -32.252  1.00  0.00     0.033 H 
ATOM     43 1H11 0LI B1000      -1.548   5.693 -31.242  1.00  0.00     0.033 H 
HETATM   44  C19 0LI B1000     -12.417   1.294 -28.576  1.00 15.34     0.418 C 
HETATM   45  F1  0LI B1000     -11.680   0.629 -29.483  1.00 13.89    -0.166 F 
HETATM   46  F2  0LI B1000     -13.655   1.629 -29.057  1.00 14.94    -0.166 F 
HETATM   47  F3  0LI B1000     -12.646   0.446 -27.583  1.00 15.20    -0.166 F 
HETATM   48  C20 0LI B1000     -13.441   3.024 -26.211  1.00 13.13     0.138 C 
ATOM     49 2H20 0LI B1000     -13.908   2.070 -26.550  1.00  0.00     0.087 H 
ATOM     50 1H20 0LI B1000     -13.250   2.767 -25.143  1.00  0.00     0.087 H 
HETATM   51  N3  0LI B1000     -14.401   4.147 -26.318  1.00 12.51     0.096 N 
HETATM   52  C21 0LI B1000     -15.584   3.912 -25.430  1.00 13.14     0.138 C 
HETATM   53  C22 0LI B1000     -16.572   5.086 -25.532  1.00 13.76     0.138 C 
ATOM     54 2H21 0LI B1000     -16.076   2.934 -25.644  1.00  0.00     0.082 H 
ATOM     55 1H21 0LI B1000     -15.278   3.717 -24.375  1.00  0.00     0.082 H 
HETATM   56  N4  0LI B1000     -16.960   5.394 -26.916  1.00 13.82     0.087 N 
ATOM     57 2H22 0LI B1000     -17.471   4.905 -24.898  1.00  0.00     0.082 H 
ATOM     58 1H22 0LI B1000     -16.168   5.991 -25.022  1.00  0.00     0.082 H 
HETATM   59  C23 0LI B1000     -15.808   5.610 -27.795  1.00 12.77     0.138 C 
HETATM   60  C24 0LI B1000     -14.799   4.484 -27.677  1.00 13.05     0.138 C 
ATOM     61 2H23 0LI B1000     -16.126   5.764 -28.853  1.00  0.00     0.082 H 
ATOM     62 1H23 0LI B1000     -15.335   6.602 -27.611  1.00  0.00     0.082 H 
ATOM     63 2H24 0LI B1000     -15.175   3.575 -28.203  1.00  0.00     0.082 H 
ATOM     64 1H24 0LI B1000     -13.899   4.709 -28.295  1.00  0.00     0.082 H 
HETATM   65  C25 0LI B1000     -17.889   6.521 -26.933  1.00 13.74     0.095 C 
ATOM     66 3H25 0LI B1000     -17.808   7.114 -27.874  1.00  0.00     0.071 H 
ATOM     67 2H25 0LI B1000     -18.947   6.189 -27.040  1.00  0.00     0.071 H 
ATOM     68 1H25 0LI B1000     -17.738   7.151 -26.026  1.00  0.00     0.071 H 
ENDMDL
REMARK VINA RESULT:      -8.8      7.786      9.955
REMARK  9 active torsions:
REMARK  status: ('A' for Active; 'I' for Inactive)
REMARK    1  A    between atoms: C20_17  and  N3_3 
REMARK    2  A    between atoms: C4_4  and  C5_5 
REMARK    3  A    between atoms: C11_44  and  C6_6 
REMARK    4  A    between atoms: C13_13  and  N2_50 
REMARK    5  A    between atoms: C17_16  and  C19_57 
REMARK    6  A    between atoms: C16_54  and  C20_17 
REMARK    7  A    between atoms: C2_41  and  C3_42 
REMARK    8  A    between atoms: C12_48  and  C9_43 
REMARK       I    between atoms: C12_48  and  N2_50 
REMARK    9  A    between atoms: C25_64  and  N4_68 
REMARK viewdock state: V
HETATM    1  C13 0LI B1000      -6.922   9.126 -33.487  1.00 13.05     0.035 A 
HETATM    2  C15 0LI B1000      -9.249   9.397 -33.982  1.00 13.31    -0.072 A 
ATOM      3  H15 0LI B1000     -10.080   9.365 -34.708  1.00  0.00     0.084 H 
HETATM    4  C17 0LI B1000      -8.492   9.753 -31.698  1.00 14.02     0.058 A 
HETATM    5  C14 0LI B1000      -7.939   9.123 -34.406  1.00 13.18    -0.057 A 
ATOM      6  H14 0LI B1000      -7.731   8.908 -35.467  1.00  0.00     0.086 H 
HETATM    7  C16 0LI B1000      -9.505   9.712 -32.633  1.00 13.67    -0.015 A 
HETATM    8  C18 0LI B1000      -7.199   9.484 -32.149  1.00 13.70    -0.042 A 
ATOM      9  H18 0LI B1000      -6.361   9.553 -31.433  1.00  0.00     0.088 H 
HETATM   10  N2  0LI B1000      -5.534   8.938 -33.851  1.00 14.03    -0.323 N 
HETATM   11  C12 0LI B1000      -4.486   9.911 -33.933  1.00 14.79     0.256 C 
HETATM   12  O1  0LI B1000      -4.709  11.089 -33.729  1.00 15.10    -0.267 OA
ATOM     13  H2  0LI B1000      -5.265   7.982 -34.080  1.00  0.00     0.169 HD
HETATM   14  C9  0LI B1000      -3.110   9.521 -34.460  1.00 14.27     0.033 A 
HETATM   15  C10 0LI B1000      -3.004   8.437 -35.314  1.00 13.71    -0.049 A 
HETATM   16  C5  0LI B1000      -1.688   8.021 -35.743  1.00 14.00     0.025 A 
ATOM     17  H10 0LI B1000      -3.904   7.902 -35.660  1.00  0.00     0.087 H 
HETATM   18  C6  0LI B1000      -0.548   8.543 -35.250  1.00 14.10    -0.043 A 
HETATM   19  C7  0LI B1000      -0.661   9.599 -34.350  1.00 13.80    -0.075 A 
HETATM   20  C8  0LI B1000      -1.923  10.062 -33.939  1.00 14.64    -0.067 A 
ATOM     21  H7  0LI B1000       0.250  10.079 -33.956  1.00  0.00     0.084 H 
ATOM     22  H8  0LI B1000      -1.983  10.867 -33.189  1.00  0.00     0.085 H 
HETATM   23  C4  0LI B1000      -1.759   6.864 -36.674  1.00 12.76    -0.059 C 
HETATM   24  C3  0LI B1000      -1.866   5.979 -37.389  1.00 12.61    -0.040 C 
HETATM   25  C2  0LI B1000      -2.071   4.862 -38.326  1.00 12.19     0.127 A 
HETATM   26  C1  0LI B1000      -1.030   3.924 -38.432  1.00 12.96     0.015 A 
HETATM   27  N1  0LI B1000      -1.405   2.990 -39.294  1.00 13.63    -0.348 N 
ATOM     28  H1  0LI B1000      -0.070   3.960 -37.891  1.00  0.00     0.116 H 
HETATM   29  C84 0LI B1000      -2.681   3.289 -39.692  1.00 12.69     0.128 A 
ATOM     30  H1  0LI B1000      -0.846   2.194 -39.604  1.00  0.00     0.167 HD
HETATM   31  C81 0LI B1000      -3.547   2.636 -40.581  1.00 12.55    -0.037 A 
HETATM   32  N82 0LI B1000      -3.084   4.457 -39.084  1.00 11.81    -0.231 N 
HETATM   33  C82 0LI B1000      -4.768   3.186 -40.800  1.00 13.14    -0.063 A 
ATOM     34  H81 0LI B1000      -3.245   1.703 -41.087  1.00  0.00     0.089 H 
HETATM   35  C83 0LI B1000      -5.129   4.342 -40.163  1.00 13.02    -0.005 A 
ATOM     36  H82 0LI B1000      -5.473   2.699 -41.494  1.00  0.00     0.085 H 
HETATM   37  N81 0LI B1000      -4.298   4.974 -39.308  1.00 12.60    -0.303 N 
ATOM     38  H83 0LI B1000      -6.128   4.769 -40.353  1.00  0.00     0.113 H 
ATOM     39  H81 0LI B1000      -4.590   5.832 -38.840  1.00  0.00     0.186 HD
HETATM   40  C11 0LI B1000       0.787   8.013 -35.731  1.00 14.69    -0.050 C 
ATOM     41 3H11 0LI B1000       1.566   8.788 -35.540  1.00  0.00     0.033 H 
ATOM     42 2H11 0LI B1000       1.113   7.198 -35.045  1.00  0.00     0.033 H 
ATOM     43 1H11 0LI B1000       0.892   7.656 -36.782  1.00  0.00     0.033 H 
HETATM   44  C19 0LI B1000      -8.708  10.062 -30.206  1.00 15.34     0.418 C 
HETATM   45  F1  0LI B1000      -8.754   8.939 -29.468  1.00 13.89    -0.166 F 
HETATM   46  F2  0LI B1000      -9.793  10.870 -29.992  1.00 14.94    -0.166 F 
HETATM   47  F3  0LI B1000      -7.665  10.755 -29.772  1.00 15.20    -0.166 F 
HETATM   48  C20 0LI B1000     -10.990   9.978 -32.308  1.00 13.13     0.138 C 
ATOM     49 2H20 0LI B1000     -11.406   9.166 -31.668  1.00  0.00     0.087 H 
ATOM     50 1H20 0LI B1000     -11.093  10.838 -31.606  1.00  0.00     0.087 H 
HETATM   51  N3  0LI B1000     -11.827  10.180 -33.514  1.00 12.51     0.096 N 
HETATM   52  C21 0LI B1000     -12.124  11.635 -33.708  1.00 13.14     0.138 C 
HETATM   53  C22 0LI B1000     -12.982  11.843 -34.967  1.00 13.76     0.138 C 
ATOM     54 2H21 0LI B1000     -12.597  12.087 -32.804  1.00  0.00     0.082 H 
ATOM     55 1H21 0LI B1000     -11.194  12.249 -33.733  1.00  0.00     0.082 H 
HETATM   56  N4  0LI B1000     -14.195  11.014 -34.981  1.00 13.82     0.087 N 
ATOM     57 2H22 0LI B1000     -13.235  12.921 -35.102  1.00  0.00     0.082 H 
ATOM     58 1H22 0LI B1000     -12.378  11.681 -35.890  1.00  0.00     0.082 H 
HETATM   59  C23 0LI B1000     -13.915   9.591 -34.776  1.00 12.77     0.138 C 
HETATM   60  C24 0LI B1000     -13.033   9.367 -33.563  1.00 13.05     0.138 C 
ATOM     61 2H23 0LI B1000     -14.855   8.995 -34.713  1.00  0.00     0.082 H 
ATOM     62 1H23 0LI B1000     -13.476   9.126 -35.690  1.00  0.00     0.082 H 
ATOM     63 2H24 0LI B1000     -13.626   9.502 -32.628  1.00  0.00     0.082 H 
ATOM     64 1H24 0LI B1000     -12.771   8.287 -33.474  1.00  0.00     0.082 H 
HETATM   65  C25 0LI B1000     -14.950  11.259 -36.207  1.00 13.74     0.095 C 
ATOM     66 3H25 0LI B1000     -16.031  11.012 -36.089  1.00  0.00     0.071 H 
ATOM     67 2H25 0LI B1000     -15.054  12.347 -36.424  1.00  0.00     0.071 H 
ATOM     68 1H25 0LI B1000     -14.485  10.706 -37.056  1.00  0.00     0.071 H 
ENDMDL
REMARK VINA RESULT:      -8.8      7.101     10.362
REMARK  9 active torsions:
REMARK  status: ('A' for Active; 'I' for Inactive)
REMARK    1  A    between atoms: C20_17  and  N3_3 
REMARK    2  A    between atoms: C4_4  and  C5_5 
REMARK    3  A    between atoms: C11_44  and  C6_6 
REMARK    4  A    between atoms: C13_13  and  N2_50 
REMARK    5  A    between atoms: C17_16  and  C19_57 
REMARK    6  A    between atoms: C16_54  and  C20_17 
REMARK    7  A    between atoms: C2_41  and  C3_42 
REMARK    8  A    between atoms: C12_48  and  C9_43 
REMARK       I    between atoms: C12_48  and  N2_50 
REMARK    9  A    between atoms: C25_64  and  N4_68 
REMARK viewdock state: V
HETATM    1  C13 0LI B1000      -5.296   7.828 -34.317  1.00 13.05     0.035 A 
HETATM    2  C15 0LI B1000      -4.575   8.908 -32.305  1.00 13.31    -0.072 A 
ATOM      3  H15 0LI B1000      -3.759   9.267 -31.656  1.00  0.00     0.084 H 
HETATM    4  C17 0LI B1000      -6.962   8.697 -32.727  1.00 14.02     0.058 A 
HETATM    5  C14 0LI B1000      -4.274   8.234 -33.499  1.00 13.18    -0.057 A 
ATOM      6  H14 0LI B1000      -3.225   8.033 -33.776  1.00  0.00     0.086 H 
HETATM    7  C16 0LI B1000      -5.917   9.126 -31.935  1.00 13.67    -0.015 A 
HETATM    8  C18 0LI B1000      -6.632   8.024 -33.905  1.00 13.70    -0.042 A 
ATOM      9  H18 0LI B1000      -7.447   7.629 -34.537  1.00  0.00     0.088 H 
HETATM   10  N2  0LI B1000      -5.078   7.055 -35.521  1.00 14.03    -0.323 N 
HETATM   11  C12 0LI B1000      -4.597   7.493 -36.797  1.00 14.79     0.256 C 
HETATM   12  O1  0LI B1000      -4.353   8.667 -37.003  1.00 15.10    -0.267 OA
ATOM     13  H2  0LI B1000      -5.297   6.062 -35.452  1.00  0.00     0.169 HD
HETATM   14  C9  0LI B1000      -4.556   6.533 -37.979  1.00 14.27     0.033 A 
HETATM   15  C10 0LI B1000      -5.747   6.162 -38.580  1.00 13.71    -0.049 A 
HETATM   16  C5  0LI B1000      -5.709   5.186 -39.645  1.00 14.00     0.025 A 
ATOM     17  H10 0LI B1000      -6.704   6.601 -38.252  1.00  0.00     0.087 H 
HETATM   18  C6  0LI B1000      -4.595   4.514 -39.996  1.00 14.10    -0.043 A 
HETATM   19  C7  0LI B1000      -3.409   4.854 -39.351  1.00 13.80    -0.075 A 
HETATM   20  C8  0LI B1000      -3.396   5.828 -38.337  1.00 14.64    -0.067 A 
ATOM     21  H7  0LI B1000      -2.470   4.354 -39.639  1.00  0.00     0.084 H 
ATOM     22  H8  0LI B1000      -2.451   6.043 -37.810  1.00  0.00     0.085 H 
HETATM   23  C4  0LI B1000      -7.067   4.924 -40.192  1.00 12.76    -0.059 C 
HETATM   24  C3  0LI B1000      -8.107   4.768 -40.639  1.00 12.61    -0.040 C 
HETATM   25  C2  0LI B1000      -9.431   4.616 -41.266  1.00 12.19     0.127 A 
HETATM   26  C1  0LI B1000     -10.049   5.788 -41.731  1.00 12.96     0.015 A 
HETATM   27  N1  0LI B1000     -11.208   5.451 -42.280  1.00 13.63    -0.348 N 
ATOM     28  H1  0LI B1000      -9.641   6.810 -41.654  1.00  0.00     0.116 H 
HETATM   29  C84 0LI B1000     -11.306   4.087 -42.219  1.00 12.69     0.128 A 
ATOM     30  H1  0LI B1000     -11.898   6.090 -42.675  1.00  0.00     0.167 HD
HETATM   31  C81 0LI B1000     -12.315   3.215 -42.655  1.00 12.55    -0.037 A 
HETATM   32  N82 0LI B1000     -10.196   3.578 -41.584  1.00 11.81    -0.231 N 
HETATM   33  C82 0LI B1000     -12.145   1.886 -42.438  1.00 13.14    -0.063 A 
ATOM     34  H81 0LI B1000     -13.219   3.597 -43.159  1.00  0.00     0.089 H 
HETATM   35  C83 0LI B1000     -11.018   1.426 -41.813  1.00 13.02    -0.005 A 
ATOM     36  H82 0LI B1000     -12.920   1.173 -42.767  1.00  0.00     0.085 H 
HETATM   37  N81 0LI B1000     -10.046   2.263 -41.391  1.00 12.60    -0.303 N 
ATOM     38  H83 0LI B1000     -10.900   0.342 -41.651  1.00  0.00     0.113 H 
ATOM     39  H81 0LI B1000      -9.212   1.897 -40.933  1.00  0.00     0.186 HD
HETATM   40  C11 0LI B1000      -4.662   3.478 -41.099  1.00 14.69    -0.050 C 
ATOM     41 3H11 0LI B1000      -5.691   3.485 -41.530  1.00  0.00     0.033 H 
ATOM     42 2H11 0LI B1000      -4.058   3.840 -41.963  1.00  0.00     0.033 H 
ATOM     43 1H11 0LI B1000      -4.376   2.423 -40.882  1.00  0.00     0.033 H 
HETATM   44  C19 0LI B1000      -8.446   8.928 -32.396  1.00 15.34     0.418 C 
HETATM   45  F1  0LI B1000      -9.246   8.553 -33.410  1.00 13.89    -0.166 F 
HETATM   46  F2  0LI B1000      -8.695  10.210 -31.984  1.00 14.94    -0.166 F 
HETATM   47  F3  0LI B1000      -8.764   8.161 -31.363  1.00 15.20    -0.166 F 
HETATM   48  C20 0LI B1000      -6.099   9.888 -30.606  1.00 13.13     0.138 C 
ATOM     49 2H20 0LI B1000      -5.261  10.606 -30.444  1.00  0.00     0.087 H 
ATOM     50 1H20 0LI B1000      -6.948  10.608 -30.676  1.00  0.00     0.087 H 
HETATM   51  N3  0LI B1000      -6.261   8.995 -29.435  1.00 12.51     0.096 N 
HETATM   52  C21 0LI B1000      -7.443   9.415 -28.616  1.00 13.14     0.138 C 
HETATM   53  C22 0LI B1000      -7.617   8.478 -27.409  1.00 13.76     0.138 C 
ATOM     54 2H21 0LI B1000      -7.375  10.484 -28.306  1.00  0.00     0.082 H 
ATOM     55 1H21 0LI B1000      -8.372   9.479 -29.230  1.00  0.00     0.082 H 
HETATM   56  N4  0LI B1000      -6.395   8.341 -26.605  1.00 13.82     0.087 N 
ATOM     57 2H22 0LI B1000      -8.476   8.802 -26.775  1.00  0.00     0.082 H 
ATOM     58 1H22 0LI B1000      -7.995   7.480 -27.731  1.00  0.00     0.082 H 
HETATM   59  C23 0LI B1000      -5.231   7.946 -27.401  1.00 12.77     0.138 C 
HETATM   60  C24 0LI B1000      -5.065   8.831 -28.622  1.00 13.05     0.138 C 
ATOM     61 2H23 0LI B1000      -4.302   7.925 -26.784  1.00  0.00     0.082 H 
ATOM     62 1H23 0LI B1000      -5.275   6.868 -27.682  1.00  0.00     0.082 H 
ATOM     63 2H24 0LI B1000      -4.666   9.827 -28.322  1.00  0.00     0.082 H 
ATOM     64 1H24 0LI B1000      -4.222   8.463 -29.250  1.00  0.00     0.082 H 
HETATM   65  C25 0LI B1000      -6.635   7.433 -25.486  1.00 13.74     0.095 C 
ATOM     66 3H25 0LI B1000      -7.489   7.767 -24.852  1.00  0.00     0.071 H 
ATOM     67 2H25 0LI B1000      -7.054   6.457 -25.823  1.00  0.00     0.071 H 
ATOM     68 1H25 0LI B1000      -5.699   7.304 -24.894  1.00  0.00     0.071 H 
ENDMDL
REMARK VINA RESULT:      -8.6      4.776     12.768
REMARK  9 active torsions:
REMARK  status: ('A' for Active; 'I' for Inactive)
REMARK    1  A    between atoms: C20_17  and  N3_3 
REMARK    2  A    between atoms: C4_4  and  C5_5 
REMARK    3  A    between atoms: C11_44  and  C6_6 
REMARK    4  A    between atoms: C13_13  and  N2_50 
REMARK    5  A    between atoms: C17_16  and  C19_57 
REMARK    6  A    between atoms: C16_54  and  C20_17 
REMARK    7  A    between atoms: C2_41  and  C3_42 
REMARK    8  A    between atoms: C12_48  and  C9_43 
REMARK       I    between atoms: C12_48  and  N2_50 
REMARK    9  A    between atoms: C25_64  and  N4_68 
REMARK viewdock state: V
HETATM    1  C13 0LI B1000      -4.461   6.922 -32.263  1.00 13.05     0.035 A 
HETATM    2  C15 0LI B1000      -2.579   6.830 -33.741  1.00 13.31    -0.072 A 
ATOM      3  H15 0LI B1000      -1.530   6.549 -33.932  1.00  0.00     0.084 H 
HETATM    4  C17 0LI B1000      -4.667   7.770 -34.564  1.00 14.02     0.058 A 
HETATM    5  C14 0LI B1000      -3.145   6.605 -32.476  1.00 13.18    -0.057 A 
ATOM      6  H14 0LI B1000      -2.536   6.178 -31.662  1.00  0.00     0.086 H 
HETATM    7  C16 0LI B1000      -3.350   7.414 -34.766  1.00 13.67    -0.015 A 
HETATM    8  C18 0LI B1000      -5.200   7.542 -33.294  1.00 13.70    -0.042 A 
ATOM      9  H18 0LI B1000      -6.237   7.858 -33.089  1.00  0.00     0.088 H 
HETATM   10  N2  0LI B1000      -5.098   6.801 -30.969  1.00 14.03    -0.323 N 
HETATM   11  C12 0LI B1000      -5.612   5.630 -30.324  1.00 14.79     0.256 C 
HETATM   12  O1  0LI B1000      -5.594   4.550 -30.885  1.00 15.10    -0.267 OA
ATOM     13  H2  0LI B1000      -5.194   7.670 -30.443  1.00  0.00     0.169 HD
HETATM   14  C9  0LI B1000      -6.362   5.741 -29.003  1.00 14.27     0.033 A 
HETATM   15  C10 0LI B1000      -7.499   4.974 -28.812  1.00 13.71    -0.049 A 
HETATM   16  C5  0LI B1000      -8.252   5.146 -27.590  1.00 14.00     0.025 A 
ATOM     17  H10 0LI B1000      -7.822   4.248 -29.576  1.00  0.00     0.087 H 
HETATM   18  C6  0LI B1000      -7.988   6.110 -26.686  1.00 14.10    -0.043 A 
HETATM   19  C7  0LI B1000      -6.873   6.913 -26.910  1.00 13.80    -0.075 A 
HETATM   20  C8  0LI B1000      -6.089   6.751 -28.065  1.00 14.64    -0.067 A 
ATOM     21  H7  0LI B1000      -6.602   7.686 -26.172  1.00  0.00     0.084 H 
ATOM     22  H8  0LI B1000      -5.241   7.433 -28.240  1.00  0.00     0.085 H 
HETATM   23  C4  0LI B1000      -9.422   4.231 -27.539  1.00 12.76    -0.059 C 
HETATM   24  C3  0LI B1000     -10.335   3.544 -27.547  1.00 12.61    -0.040 C 
HETATM   25  C2  0LI B1000     -11.515   2.667 -27.629  1.00 12.19     0.127 A 
HETATM   26  C1  0LI B1000     -11.559   1.763 -28.704  1.00 12.96     0.015 A 
HETATM   27  N1  0LI B1000     -12.671   1.050 -28.596  1.00 13.63    -0.348 N 
ATOM     28  H1  0LI B1000     -10.800   1.665 -29.498  1.00  0.00     0.116 H 
HETATM   29  C84 0LI B1000     -13.301   1.448 -27.447  1.00 12.69     0.128 A 
ATOM     30  H1  0LI B1000     -12.998   0.337 -29.249  1.00  0.00     0.167 HD
HETATM   31  C81 0LI B1000     -14.500   1.021 -26.858  1.00 12.55    -0.037 A 
HETATM   32  N82 0LI B1000     -12.573   2.456 -26.855  1.00 11.81    -0.231 N 
HETATM   33  C82 0LI B1000     -14.892   1.622 -25.706  1.00 13.14    -0.063 A 
ATOM     34  H81 0LI B1000     -15.106   0.222 -27.316  1.00  0.00     0.089 H 
HETATM   35  C83 0LI B1000     -14.129   2.611 -25.148  1.00 13.02    -0.005 A 
ATOM     36  H82 0LI B1000     -15.831   1.312 -25.217  1.00  0.00     0.085 H 
HETATM   37  N81 0LI B1000     -12.975   3.025 -25.713  1.00 12.60    -0.303 N 
ATOM     38  H83 0LI B1000     -14.466   3.083 -24.209  1.00  0.00     0.113 H 
ATOM     39  H81 0LI B1000     -12.419   3.761 -25.277  1.00  0.00     0.186 HD
HETATM   40  C11 0LI B1000      -8.860   6.239 -25.454  1.00 14.69    -0.050 C 
ATOM     41 3H11 0LI B1000      -8.449   5.574 -24.658  1.00  0.00     0.033 H 
ATOM     42 2H11 0LI B1000      -8.696   7.247 -25.007  1.00  0.00     0.033 H 
ATOM     43 1H11 0LI B1000      -9.957   6.060 -25.535  1.00  0.00     0.033 H 
HETATM   44  C19 0LI B1000      -5.570   8.385 -35.647  1.00 15.34     0.418 C 
HETATM   45  F1  0LI B1000      -5.906   7.481 -36.585  1.00 13.89    -0.166 F 
HETATM   46  F2  0LI B1000      -5.033   9.522 -36.190  1.00 14.94    -0.166 F 
HETATM   47  F3  0LI B1000      -6.701   8.771 -35.074  1.00 15.20    -0.166 F 
HETATM   48  C20 0LI B1000      -2.604   7.591 -36.105  1.00 13.13     0.138 C 
ATOM     49 2H20 0LI B1000      -3.004   8.466 -36.668  1.00  0.00     0.087 H 
ATOM     50 1H20 0LI B1000      -1.560   7.942 -35.934  1.00  0.00     0.087 H 
HETATM   51  N3  0LI B1000      -2.617   6.373 -36.949  1.00 12.51     0.096 N 
HETATM   52  C21 0LI B1000      -1.249   5.768 -37.017  1.00 13.14     0.138 C 
HETATM   53  C22 0LI B1000      -1.269   4.497 -37.882  1.00 13.76     0.138 C 
ATOM     54 2H21 0LI B1000      -0.488   6.501 -37.372  1.00  0.00     0.082 H 
ATOM     55 1H21 0LI B1000      -0.831   5.573 -36.002  1.00  0.00     0.082 H 
HETATM   56  N4  0LI B1000      -1.854   4.713 -39.212  1.00 13.82     0.087 N 
ATOM     57 2H22 0LI B1000      -0.247   4.056 -37.964  1.00  0.00     0.082 H 
ATOM     58 1H22 0LI B1000      -1.785   3.662 -37.351  1.00  0.00     0.082 H 
HETATM   59  C23 0LI B1000      -3.186   5.320 -39.155  1.00 12.77     0.138 C 
HETATM   60  C24 0LI B1000      -3.200   6.552 -38.271  1.00 13.05     0.138 C 
ATOM     61 2H23 0LI B1000      -3.576   5.546 -40.176  1.00  0.00     0.082 H 
ATOM     62 1H23 0LI B1000      -3.958   4.581 -38.836  1.00  0.00     0.082 H 
ATOM     63 2H24 0LI B1000      -2.708   7.405 -38.795  1.00  0.00     0.082 H 
ATOM     64 1H24 0LI B1000      -4.238   6.949 -38.182  1.00  0.00     0.082 H 
HETATM   65  C25 0LI B1000      -1.846   3.464 -39.969  1.00 13.74     0.095 C 
ATOM     66 3H25 0LI B1000      -1.524   3.617 -41.025  1.00  0.00     0.071 H 
ATOM     67 2H25 0LI B1000      -1.025   2.784 -39.645  1.00  0.00     0.071 H 
ATOM     68 1H25 0LI B1000      -2.846   2.974 -39.903  1.00  0.00     0.071 H 
ENDMDL
