REMARK VINA RESULT:     -10.9      0.000      0.000
REMARK  10 active torsions:
REMARK  status: ('A' for Active; 'I' for Inactive)
REMARK    1  A    between atoms: C09_48  and  C10_1 
REMARK    2  A    between atoms: C13_6  and  C20_10 
REMARK    3  A    between atoms: C15_9  and  C16_44 
REMARK       I    between atoms: C20_10  and  N21_11 
REMARK    4  A    between atoms: C22_14  and  N21_11 
REMARK    5  A    between atoms: C1_23  and  C27_16 
REMARK    6  A    between atoms: C25_18  and  C26_40 
REMARK    7  A    between atoms: C1_23  and  C30_24 
REMARK    8  A    between atoms: C09_48  and  N06_51 
REMARK    9  A    between atoms: C02_65  and  N03_56 
REMARK   10  A    between atoms: C01_68  and  C02_65 
REMARK viewdock state: V
HETATM    1  C10 DI1 A1000     -18.212   0.542 -49.293  1.00 31.19    -0.015 A 
HETATM    2  C11 DI1 A1000     -17.224   0.341 -48.340  1.00 31.89    -0.073 A 
HETATM    3  H11 DI1 A1000     -17.485  -0.128 -47.375  1.00  0.00     0.084 H 
HETATM    4  C12 DI1 A1000     -15.921   0.721 -48.581  1.00 34.49    -0.067 A 
HETATM    5  H12 DI1 A1000     -15.146   0.541 -47.816  1.00  0.00     0.085 H 
HETATM    6  C13 DI1 A1000     -15.577   1.331 -49.777  1.00 33.40     0.033 A 
HETATM    7  C14 DI1 A1000     -16.555   1.518 -50.742  1.00 32.40    -0.052 A 
HETATM    8  H14 DI1 A1000     -16.288   1.985 -51.706  1.00  0.00     0.086 H 
HETATM    9  C15 DI1 A1000     -17.866   1.125 -50.510  1.00 31.14     0.056 A 
HETATM   10  C20 DI1 A1000     -14.199   1.715 -50.180  1.00 35.22     0.256 C 
HETATM   11  O40 DI1 A1000     -13.300   0.889 -50.157  1.00 34.16    -0.267 OA
HETATM   12  N21 DI1 A1000     -14.048   2.965 -50.668  1.00 33.72    -0.323 N 
HETATM   13  H21 DI1 A1000     -14.900   3.501 -50.823  1.00  0.00     0.169 HD
HETATM   14  C22 DI1 A1000     -12.830   3.606 -50.987  1.00 30.76     0.035 A 
HETATM   15  C28 DI1 A1000     -12.347   4.566 -50.117  1.00 29.62    -0.044 A 
HETATM   16  C27 DI1 A1000     -11.192   5.252 -50.420  1.00 29.96     0.026 A 
HETATM   17  H28 DI1 A1000     -12.886   4.784 -49.180  1.00  0.00     0.088 H 
HETATM   18  C25 DI1 A1000     -10.474   4.979 -51.587  1.00 30.34    -0.049 A 
HETATM   19  C24 DI1 A1000     -10.947   3.975 -52.416  1.00 31.32    -0.074 A 
HETATM   20  C23 DI1 A1000     -12.117   3.301 -52.133  1.00 30.63    -0.057 A 
HETATM   21  H24 DI1 A1000     -10.377   3.709 -53.320  1.00  0.00     0.084 H 
HETATM   22  H23 DI1 A1000     -12.485   2.520 -52.821  1.00  0.00     0.086 H 
HETATM   23  C1  DI1 A1000     -11.091   6.312 -49.583  1.00 30.38     0.299 C 
HETATM   24  F1  DI1 A1000     -11.683   5.939 -48.577  1.00  0.00    -0.195 F 
HETATM   25  F2  DI1 A1000     -11.813   7.173 -50.074  1.00  0.00    -0.195 F 
HETATM   26  C30 DI1 A1000     -10.020   6.992 -49.086  1.00 34.16     0.018 A 
HETATM   27  C31 DI1 A1000      -8.949   6.240 -48.655  1.00 33.93    -0.069 A 
HETATM   28  C32 DI1 A1000      -7.978   6.812 -47.860  1.00 36.25    -0.056 A 
HETATM   29  H31 DI1 A1000      -8.868   5.178 -48.947  1.00  0.00     0.084 H 
HETATM   30  C33 DI1 A1000      -8.079   8.148 -47.536  1.00 33.51     0.041 A 
HETATM   31  H32 DI1 A1000      -7.131   6.209 -47.489  1.00  0.00     0.087 H 
HETATM   32  N37 DI1 A1000      -7.223   8.940 -46.796  1.00 35.18    -0.326 N 
HETATM   33  C34 DI1 A1000      -9.147   8.917 -47.984  1.00 31.98    -0.022 A 
HETATM   34  C36 DI1 A1000      -7.670  10.219 -46.701  1.00 33.97     0.226 A 
HETATM   35  H37 DI1 A1000      -6.358   8.604 -46.372  1.00  0.00     0.169 HD
HETATM   36  C35 DI1 A1000      -8.951  10.311 -47.481  1.00 32.48     0.035 A 
HETATM   37  O38 DI1 A1000      -7.121  11.108 -46.081  1.00 41.19    -0.273 OA
HETATM   38 1H35 DI1 A1000      -9.813  10.723 -46.907  1.00  0.00     0.054 H 
HETATM   39 2H35 DI1 A1000      -8.955  11.096 -48.273  1.00  0.00     0.054 H 
HETATM   40  C39 DI1 A1000     -10.127   8.337 -48.768  1.00 33.39    -0.062 A 
HETATM   41  H39 DI1 A1000     -10.979   8.935 -49.135  1.00  0.00     0.085 H 
HETATM   42  C26 DI1 A1000      -9.232   5.744 -51.946  1.00 31.24    -0.051 C 
HETATM   43 1H26 DI1 A1000      -8.390   5.827 -51.222  1.00  0.00     0.033 H 
HETATM   44 2H26 DI1 A1000      -9.533   6.772 -52.253  1.00  0.00     0.033 H 
HETATM   45 3H26 DI1 A1000      -8.831   5.330 -52.901  1.00  0.00     0.033 H 
HETATM   46  C16 DI1 A1000     -18.872   1.384 -51.578  1.00 34.07     0.418 C 
HETATM   47  F18 DI1 A1000     -19.511   0.333 -51.938  1.00 34.55    -0.166 F 
HETATM   48  F19 DI1 A1000     -18.359   1.830 -52.631  1.00 32.66    -0.166 F 
HETATM   49  F17 DI1 A1000     -19.732   2.232 -51.231  1.00 35.34    -0.166 F 
HETATM   50  C09 DI1 A1000     -19.646   0.187 -48.989  1.00 31.99     0.138 C 
HETATM   51 1H09 DI1 A1000     -19.821  -0.911 -49.093  1.00  0.00     0.087 H 
HETATM   52 2H09 DI1 A1000     -20.330   0.552 -49.788  1.00  0.00     0.087 H 
HETATM   53  N06 DI1 A1000     -20.064   0.667 -47.673  1.00 31.70     0.096 N 
HETATM   54  C05 DI1 A1000     -21.173  -0.129 -47.133  1.00 31.38     0.138 C 
HETATM   55 1H05 DI1 A1000     -22.046  -0.148 -47.825  1.00  0.00     0.082 H 
HETATM   56 2H05 DI1 A1000     -20.939  -1.219 -47.130  1.00  0.00     0.082 H 
HETATM   57  C04 DI1 A1000     -21.559   0.370 -45.751  1.00 30.37     0.138 C 
HETATM   58 1H04 DI1 A1000     -22.383  -0.238 -45.308  1.00  0.00     0.082 H 
HETATM   59 2H04 DI1 A1000     -20.767   0.155 -44.998  1.00  0.00     0.082 H 
HETATM   60  N03 DI1 A1000     -21.899   1.797 -45.791  1.00 33.96     0.091 N 
HETATM   61  C08 DI1 A1000     -20.777   2.563 -46.345  1.00 32.34     0.138 C 
HETATM   62 1H08 DI1 A1000     -20.977   3.658 -46.333  1.00  0.00     0.082 H 
HETATM   63 2H08 DI1 A1000     -19.891   2.547 -45.668  1.00  0.00     0.082 H 
HETATM   64  C07 DI1 A1000     -20.434   2.077 -47.718  1.00 31.73     0.138 C 
HETATM   65 1H07 DI1 A1000     -19.642   2.700 -48.195  1.00  0.00     0.082 H 
HETATM   66 2H07 DI1 A1000     -21.257   2.270 -48.446  1.00  0.00     0.082 H 
HETATM   67  C02 DI1 A1000     -22.178   2.295 -44.448  1.00 36.77     0.110 C 
HETATM   68 1H02 DI1 A1000     -22.361   3.395 -44.479  1.00  0.00     0.079 H 
HETATM   69 2H02 DI1 A1000     -23.179   1.937 -44.110  1.00  0.00     0.079 H 
HETATM   70  C01 DI1 A1000     -21.160   1.984 -43.424  1.00 38.92    -0.051 C 
HETATM   71 1H01 DI1 A1000     -21.272   0.997 -42.917  1.00  0.00     0.029 H 
HETATM   72 2H01 DI1 A1000     -21.122   2.800 -42.667  1.00  0.00     0.029 H 
HETATM   73 3H01 DI1 A1000     -20.139   2.072 -43.864  1.00  0.00     0.029 H 
ENDMDL
REMARK VINA RESULT:     -10.5      4.774     12.041
REMARK  10 active torsions:
REMARK  status: ('A' for Active; 'I' for Inactive)
REMARK    1  A    between atoms: C09_48  and  C10_1 
REMARK    2  A    between atoms: C13_6  and  C20_10 
REMARK    3  A    between atoms: C15_9  and  C16_44 
REMARK       I    between atoms: C20_10  and  N21_11 
REMARK    4  A    between atoms: C22_14  and  N21_11 
REMARK    5  A    between atoms: C1_23  and  C27_16 
REMARK    6  A    between atoms: C25_18  and  C26_40 
REMARK    7  A    between atoms: C1_23  and  C30_24 
REMARK    8  A    between atoms: C09_48  and  N06_51 
REMARK    9  A    between atoms: C02_65  and  N03_56 
REMARK   10  A    between atoms: C01_68  and  C02_65 
REMARK viewdock state: V
HETATM    1  C10 DI1 A1000     -11.861   5.552 -49.949  1.00 31.19    -0.015 A 
HETATM    2  C11 DI1 A1000     -12.732   5.094 -48.972  1.00 31.89    -0.073 A 
HETATM    3  H11 DI1 A1000     -12.944   5.726 -48.092  1.00  0.00     0.084 H 
HETATM    4  C12 DI1 A1000     -13.335   3.859 -49.084  1.00 34.49    -0.067 A 
HETATM    5  H12 DI1 A1000     -14.036   3.518 -48.303  1.00  0.00     0.085 H 
HETATM    6  C13 DI1 A1000     -13.065   3.043 -50.171  1.00 33.40     0.033 A 
HETATM    7  C14 DI1 A1000     -12.209   3.501 -51.161  1.00 32.40    -0.052 A 
HETATM    8  H14 DI1 A1000     -12.003   2.866 -52.040  1.00  0.00     0.086 H 
HETATM    9  C15 DI1 A1000     -11.610   4.749 -51.060  1.00 31.14     0.056 A 
HETATM   10  C20 DI1 A1000     -13.708   1.729 -50.438  1.00 35.22     0.256 C 
HETATM   11  O40 DI1 A1000     -13.209   0.702 -50.009  1.00 34.16    -0.267 OA
HETATM   12  N21 DI1 A1000     -14.904   1.768 -51.064  1.00 33.72    -0.323 N 
HETATM   13  H21 DI1 A1000     -15.316   2.690 -51.204  1.00  0.00     0.169 HD
HETATM   14  C22 DI1 A1000     -15.642   0.664 -51.547  1.00 30.76     0.035 A 
HETATM   15  C28 DI1 A1000     -15.503   0.312 -52.876  1.00 29.62    -0.044 A 
HETATM   16  C27 DI1 A1000     -16.246  -0.723 -53.397  1.00 29.96     0.026 A 
HETATM   17  H28 DI1 A1000     -14.795   0.860 -53.522  1.00  0.00     0.088 H 
HETATM   18  C25 DI1 A1000     -17.130  -1.451 -52.597  1.00 30.34    -0.049 A 
HETATM   19  C24 DI1 A1000     -17.212  -1.116 -51.256  1.00 31.32    -0.074 A 
HETATM   20  C23 DI1 A1000     -16.490  -0.064 -50.732  1.00 30.63    -0.057 A 
HETATM   21  H24 DI1 A1000     -17.868  -1.703 -50.592  1.00  0.00     0.084 H 
HETATM   22  H23 DI1 A1000     -16.590   0.197 -49.664  1.00  0.00     0.086 H 
HETATM   23  C1  DI1 A1000     -16.152  -0.682 -54.748  1.00 30.38     0.299 C 
HETATM   24  F1  DI1 A1000     -15.196   0.060 -54.944  1.00  0.00    -0.195 F 
HETATM   25  F2  DI1 A1000     -17.130  -0.042 -55.114  1.00  0.00    -0.195 F 
HETATM   26  C30 DI1 A1000     -15.995  -1.655 -55.688  1.00 34.16     0.018 A 
HETATM   27  C31 DI1 A1000     -15.060  -2.632 -55.425  1.00 33.93    -0.069 A 
HETATM   28  C32 DI1 A1000     -14.617  -3.455 -56.439  1.00 36.25    -0.056 A 
HETATM   29  H31 DI1 A1000     -14.665  -2.756 -54.402  1.00  0.00     0.084 H 
HETATM   30  C33 DI1 A1000     -15.147  -3.308 -57.702  1.00 33.51     0.041 A 
HETATM   31  H32 DI1 A1000     -13.848  -4.223 -56.242  1.00  0.00     0.087 H 
HETATM   32  N37 DI1 A1000     -14.893  -4.029 -58.852  1.00 35.18    -0.326 N 
HETATM   33  C34 DI1 A1000     -16.106  -2.336 -57.969  1.00 31.98    -0.022 A 
HETATM   34  C36 DI1 A1000     -15.624  -3.579 -59.906  1.00 33.97     0.226 A 
HETATM   35  H37 DI1 A1000     -14.234  -4.806 -58.905  1.00  0.00     0.169 HD
HETATM   36  C35 DI1 A1000     -16.485  -2.451 -59.411  1.00 32.48     0.035 A 
HETATM   37  O38 DI1 A1000     -15.565  -4.018 -61.036  1.00 41.19    -0.273 OA
HETATM   38 1H35 DI1 A1000     -16.388  -1.506 -59.993  1.00  0.00     0.054 H 
HETATM   39 2H35 DI1 A1000     -17.576  -2.588 -59.595  1.00  0.00     0.054 H 
HETATM   40  C39 DI1 A1000     -16.538  -1.503 -56.955  1.00 33.39    -0.062 A 
HETATM   41  H39 DI1 A1000     -17.301  -0.729 -57.149  1.00  0.00     0.085 H 
HETATM   42  C26 DI1 A1000     -17.972  -2.561 -53.160  1.00 31.24    -0.051 C 
HETATM   43 1H26 DI1 A1000     -17.517  -3.547 -53.407  1.00  0.00     0.033 H 
HETATM   44 2H26 DI1 A1000     -18.490  -2.177 -54.069  1.00  0.00     0.033 H 
HETATM   45 3H26 DI1 A1000     -18.828  -2.735 -52.467  1.00  0.00     0.033 H 
HETATM   46  C16 DI1 A1000     -10.677   5.166 -52.145  1.00 34.07     0.418 C 
HETATM   47  F18 DI1 A1000     -10.967   6.307 -52.649  1.00 34.55    -0.166 F 
HETATM   48  F19 DI1 A1000     -10.674   4.372 -53.115  1.00 32.66    -0.166 F 
HETATM   49  F17 DI1 A1000      -9.486   5.232 -51.753  1.00 35.34    -0.166 F 
HETATM   50  C09 DI1 A1000     -11.153   6.873 -49.779  1.00 31.99     0.138 C 
HETATM   51 1H09 DI1 A1000     -11.880   7.701 -49.599  1.00  0.00     0.087 H 
HETATM   52 2H09 DI1 A1000     -10.719   7.226 -50.743  1.00  0.00     0.087 H 
HETATM   53  N06 DI1 A1000     -10.138   6.823 -48.729  1.00 31.70     0.096 N 
HETATM   54  C05 DI1 A1000     -10.289   7.928 -47.775  1.00 31.38     0.138 C 
HETATM   55 1H05 DI1 A1000     -10.261   8.920 -48.282  1.00  0.00     0.082 H 
HETATM   56 2H05 DI1 A1000     -11.323   7.981 -47.361  1.00  0.00     0.082 H 
HETATM   57  C04 DI1 A1000      -9.244   7.826 -46.676  1.00 30.37     0.138 C 
HETATM   58 1H04 DI1 A1000      -9.358   8.642 -45.923  1.00  0.00     0.082 H 
HETATM   59 2H04 DI1 A1000      -9.431   6.954 -46.009  1.00  0.00     0.082 H 
HETATM   60  N03 DI1 A1000      -7.894   7.796 -47.247  1.00 33.96     0.091 N 
HETATM   61  C08 DI1 A1000      -7.778   6.690 -48.202  1.00 32.34     0.138 C 
HETATM   62 1H08 DI1 A1000      -6.745   6.599 -48.609  1.00  0.00     0.082 H 
HETATM   63 2H08 DI1 A1000      -7.846   5.698 -47.696  1.00  0.00     0.082 H 
HETATM   64  C07 DI1 A1000      -8.793   6.826 -49.293  1.00 31.73     0.138 C 
HETATM   65 1H07 DI1 A1000      -8.669   6.045 -50.078  1.00  0.00     0.082 H 
HETATM   66 2H07 DI1 A1000      -8.607   7.727 -49.924  1.00  0.00     0.082 H 
HETATM   67  C02 DI1 A1000      -6.898   7.604 -46.196  1.00 36.77     0.110 C 
HETATM   68 1H02 DI1 A1000      -7.297   6.918 -45.413  1.00  0.00     0.079 H 
HETATM   69 2H02 DI1 A1000      -6.049   6.992 -46.584  1.00  0.00     0.079 H 
HETATM   70  C01 DI1 A1000      -6.383   8.838 -45.569  1.00 38.92    -0.051 C 
HETATM   71 1H01 DI1 A1000      -5.560   8.698 -44.830  1.00  0.00     0.029 H 
HETATM   72 2H01 DI1 A1000      -7.222   9.405 -45.102  1.00  0.00     0.029 H 
HETATM   73 3H01 DI1 A1000      -6.068   9.562 -46.357  1.00  0.00     0.029 H 
ENDMDL
REMARK VINA RESULT:     -10.1      2.751     10.954
REMARK  10 active torsions:
REMARK  status: ('A' for Active; 'I' for Inactive)
REMARK    1  A    between atoms: C09_48  and  C10_1 
REMARK    2  A    between atoms: C13_6  and  C20_10 
REMARK    3  A    between atoms: C15_9  and  C16_44 
REMARK       I    between atoms: C20_10  and  N21_11 
REMARK    4  A    between atoms: C22_14  and  N21_11 
REMARK    5  A    between atoms: C1_23  and  C27_16 
REMARK    6  A    between atoms: C25_18  and  C26_40 
REMARK    7  A    between atoms: C1_23  and  C30_24 
REMARK    8  A    between atoms: C09_48  and  N06_51 
REMARK    9  A    between atoms: C02_65  and  N03_56 
REMARK   10  A    between atoms: C01_68  and  C02_65 
REMARK viewdock state: V
HETATM    1  C10 DI1 A1000     -11.913   5.490 -49.951  1.00 31.19    -0.015 A 
HETATM    2  C11 DI1 A1000     -12.770   5.104 -48.932  1.00 31.89    -0.073 A 
HETATM    3  H11 DI1 A1000     -12.944   5.783 -48.079  1.00  0.00     0.084 H 
HETATM    4  C12 DI1 A1000     -13.407   3.881 -48.968  1.00 34.49    -0.067 A 
HETATM    5  H12 DI1 A1000     -14.096   3.598 -48.154  1.00  0.00     0.085 H 
HETATM    6  C13 DI1 A1000     -13.186   3.006 -50.019  1.00 33.40     0.033 A 
HETATM    7  C14 DI1 A1000     -12.345   3.393 -51.052  1.00 32.40    -0.052 A 
HETATM    8  H14 DI1 A1000     -12.178   2.711 -51.903  1.00  0.00     0.086 H 
HETATM    9  C15 DI1 A1000     -11.712   4.627 -51.027  1.00 31.14     0.056 A 
HETATM   10  C20 DI1 A1000     -13.869   1.699 -50.205  1.00 35.22     0.256 C 
HETATM   11  O40 DI1 A1000     -13.308   0.662 -49.889  1.00 34.16    -0.267 OA
HETATM   12  N21 DI1 A1000     -15.152   1.752 -50.622  1.00 33.72    -0.323 N 
HETATM   13  H21 DI1 A1000     -15.580   2.676 -50.669  1.00  0.00     0.169 HD
HETATM   14  C22 DI1 A1000     -15.964   0.659 -50.999  1.00 30.76     0.035 A 
HETATM   15  C28 DI1 A1000     -17.082   0.378 -50.236  1.00 29.62    -0.044 A 
HETATM   16  C27 DI1 A1000     -17.868  -0.712 -50.540  1.00 29.96     0.026 A 
HETATM   17  H28 DI1 A1000     -17.348   1.027 -49.385  1.00  0.00     0.088 H 
HETATM   18  C25 DI1 A1000     -17.571  -1.536 -51.628  1.00 30.34    -0.049 A 
HETATM   19  C24 DI1 A1000     -16.477  -1.204 -52.409  1.00 31.32    -0.074 A 
HETATM   20  C23 DI1 A1000     -15.670  -0.129 -52.098  1.00 30.63    -0.057 A 
HETATM   21  H24 DI1 A1000     -16.246  -1.811 -53.300  1.00  0.00     0.084 H 
HETATM   22  H23 DI1 A1000     -14.792   0.102 -52.724  1.00  0.00     0.086 H 
HETATM   23  C1  DI1 A1000     -18.708  -0.938 -49.501  1.00 30.38     0.299 C 
HETATM   24  F1  DI1 A1000     -17.993  -1.486 -48.670  1.00  0.00    -0.195 F 
HETATM   25  F2  DI1 A1000     -19.468  -1.815 -49.893  1.00  0.00    -0.195 F 
HETATM   26  C30 DI1 A1000     -19.485  -0.107 -48.751  1.00 34.16     0.018 A 
HETATM   27  C31 DI1 A1000     -20.426   0.642 -49.423  1.00 33.93    -0.069 A 
HETATM   28  C32 DI1 A1000     -21.023   1.718 -48.801  1.00 36.25    -0.056 A 
HETATM   29  H31 DI1 A1000     -20.703   0.380 -50.458  1.00  0.00     0.084 H 
HETATM   30  C33 DI1 A1000     -20.691   2.009 -47.496  1.00 33.51     0.041 A 
HETATM   31  H32 DI1 A1000     -21.759   2.339 -49.341  1.00  0.00     0.087 H 
HETATM   32  N37 DI1 A1000     -21.176   2.998 -46.664  1.00 35.18    -0.326 N 
HETATM   33  C34 DI1 A1000     -19.756   1.244 -46.806  1.00 31.98    -0.022 A 
HETATM   34  C36 DI1 A1000     -20.598   2.957 -45.435  1.00 33.97     0.226 A 
HETATM   35  H37 DI1 A1000     -21.884   3.679 -46.939  1.00  0.00     0.169 HD
HETATM   36  C35 DI1 A1000     -19.638   1.801 -45.424  1.00 32.48     0.035 A 
HETATM   37  O38 DI1 A1000     -20.824   3.734 -44.529  1.00 41.19    -0.273 OA
HETATM   38 1H35 DI1 A1000     -18.600   2.065 -45.117  1.00  0.00     0.054 H 
HETATM   39 2H35 DI1 A1000     -19.814   1.062 -44.608  1.00  0.00     0.054 H 
HETATM   40  C39 DI1 A1000     -19.148   0.174 -47.436  1.00 33.39    -0.062 A 
HETATM   41  H39 DI1 A1000     -18.406  -0.445 -46.902  1.00  0.00     0.085 H 
HETATM   42  C26 DI1 A1000     -18.399  -2.748 -51.949  1.00 31.24    -0.051 C 
HETATM   43 1H26 DI1 A1000     -18.074  -3.760 -51.614  1.00  0.00     0.033 H 
HETATM   44 2H26 DI1 A1000     -18.558  -2.778 -53.052  1.00  0.00     0.033 H 
HETATM   45 3H26 DI1 A1000     -19.434  -2.573 -51.575  1.00  0.00     0.033 H 
HETATM   46  C16 DI1 A1000     -10.797   4.967 -52.154  1.00 34.07     0.418 C 
HETATM   47  F18 DI1 A1000     -11.045   6.108 -52.680  1.00 34.55    -0.166 F 
HETATM   48  F19 DI1 A1000     -10.869   4.148 -53.101  1.00 32.66    -0.166 F 
HETATM   49  F17 DI1 A1000      -9.591   4.980 -51.804  1.00 35.34    -0.166 F 
HETATM   50  C09 DI1 A1000     -11.169   6.799 -49.864  1.00 31.99     0.138 C 
HETATM   51 1H09 DI1 A1000     -11.873   7.659 -49.762  1.00  0.00     0.087 H 
HETATM   52 2H09 DI1 A1000     -10.704   7.065 -50.841  1.00  0.00     0.087 H 
HETATM   53  N06 DI1 A1000     -10.177   6.798 -48.791  1.00 31.70     0.096 N 
HETATM   54  C05 DI1 A1000     -10.366   7.929 -47.875  1.00 31.38     0.138 C 
HETATM   55 1H05 DI1 A1000     -10.342   8.905 -48.412  1.00  0.00     0.082 H 
HETATM   56 2H05 DI1 A1000     -11.410   7.978 -47.486  1.00  0.00     0.082 H 
HETATM   57  C04 DI1 A1000      -9.345   7.878 -46.751  1.00 30.37     0.138 C 
HETATM   58 1H04 DI1 A1000      -9.488   8.714 -46.026  1.00  0.00     0.082 H 
HETATM   59 2H04 DI1 A1000      -9.533   7.023 -46.061  1.00  0.00     0.082 H 
HETATM   60  N03 DI1 A1000      -7.981   7.853 -47.290  1.00 33.96     0.091 N 
HETATM   61  C08 DI1 A1000      -7.827   6.719 -48.208  1.00 32.34     0.138 C 
HETATM   62 1H08 DI1 A1000      -6.784   6.633 -48.589  1.00  0.00     0.082 H 
HETATM   63 2H08 DI1 A1000      -7.891   5.742 -47.673  1.00  0.00     0.082 H 
HETATM   64  C07 DI1 A1000      -8.819   6.806 -49.324  1.00 31.73     0.138 C 
HETATM   65 1H07 DI1 A1000      -8.665   6.003 -50.082  1.00  0.00     0.082 H 
HETATM   66 2H07 DI1 A1000      -8.633   7.689 -49.979  1.00  0.00     0.082 H 
HETATM   67  C02 DI1 A1000      -7.007   7.709 -46.212  1.00 36.77     0.110 C 
HETATM   68 1H02 DI1 A1000      -7.435   7.089 -45.391  1.00  0.00     0.079 H 
HETATM   69 2H02 DI1 A1000      -6.169   7.051 -46.542  1.00  0.00     0.079 H 
HETATM   70  C01 DI1 A1000      -6.469   8.970 -45.664  1.00 38.92    -0.051 C 
HETATM   71 1H01 DI1 A1000      -5.773   9.530 -46.331  1.00  0.00     0.029 H 
HETATM   72 2H01 DI1 A1000      -5.982   8.779 -44.680  1.00  0.00     0.029 H 
HETATM   73 3H01 DI1 A1000      -7.307   9.634 -45.345  1.00  0.00     0.029 H 
ENDMDL
REMARK VINA RESULT:      -9.8     12.576     17.916
REMARK  10 active torsions:
REMARK  status: ('A' for Active; 'I' for Inactive)
REMARK    1  A    between atoms: C09_48  and  C10_1 
REMARK    2  A    between atoms: C13_6  and  C20_10 
REMARK    3  A    between atoms: C15_9  and  C16_44 
REMARK       I    between atoms: C20_10  and  N21_11 
REMARK    4  A    between atoms: C22_14  and  N21_11 
REMARK    5  A    between atoms: C1_23  and  C27_16 
REMARK    6  A    between atoms: C25_18  and  C26_40 
REMARK    7  A    between atoms: C1_23  and  C30_24 
REMARK    8  A    between atoms: C09_48  and  N06_51 
REMARK    9  A    between atoms: C02_65  and  N03_56 
REMARK   10  A    between atoms: C01_68  and  C02_65 
REMARK viewdock state: V
HETATM    1  C10 DI1 A1000      -1.590   9.155 -39.522  1.00 31.19    -0.015 A 
HETATM    2  C11 DI1 A1000      -2.600   9.742 -40.268  1.00 31.89    -0.073 A 
HETATM    3  H11 DI1 A1000      -2.472   9.865 -41.358  1.00  0.00     0.084 H 
HETATM    4  C12 DI1 A1000      -3.764  10.176 -39.668  1.00 34.49    -0.067 A 
HETATM    5  H12 DI1 A1000      -4.562  10.627 -40.281  1.00  0.00     0.085 H 
HETATM    6  C13 DI1 A1000      -3.935  10.048 -38.298  1.00 33.40     0.033 A 
HETATM    7  C14 DI1 A1000      -2.937   9.446 -37.548  1.00 32.40    -0.052 A 
HETATM    8  H14 DI1 A1000      -3.073   9.323 -36.460  1.00  0.00     0.086 H 
HETATM    9  C15 DI1 A1000      -1.770   8.996 -38.149  1.00 31.14     0.056 A 
HETATM   10  C20 DI1 A1000      -5.169  10.408 -37.551  1.00 35.22     0.256 C 
HETATM   11  O40 DI1 A1000      -5.181  11.383 -36.817  1.00 34.16    -0.267 OA
HETATM   12  N21 DI1 A1000      -6.269   9.675 -37.830  1.00 33.72    -0.323 N 
HETATM   13  H21 DI1 A1000      -6.193   9.013 -38.600  1.00  0.00     0.169 HD
HETATM   14  C22 DI1 A1000      -7.512   9.730 -37.162  1.00 30.76     0.035 A 
HETATM   15  C28 DI1 A1000      -8.501  10.544 -37.683  1.00 29.62    -0.044 A 
HETATM   16  C27 DI1 A1000      -9.708  10.667 -37.031  1.00 29.96     0.026 A 
HETATM   17  H28 DI1 A1000      -8.326  11.094 -38.623  1.00  0.00     0.088 H 
HETATM   18  C25 DI1 A1000      -9.968   9.962 -35.854  1.00 30.34    -0.049 A 
HETATM   19  C24 DI1 A1000      -8.983   9.112 -35.380  1.00 31.32    -0.074 A 
HETATM   20  C23 DI1 A1000      -7.762   9.002 -36.012  1.00 30.63    -0.057 A 
HETATM   21  H24 DI1 A1000      -9.178   8.510 -34.477  1.00  0.00     0.084 H 
HETATM   22  H23 DI1 A1000      -6.985   8.333 -35.602  1.00  0.00     0.086 H 
HETATM   23  C1  DI1 A1000     -10.379  11.716 -37.565  1.00 30.38     0.299 C 
HETATM   24  F1  DI1 A1000      -9.532  12.276 -38.252  1.00  0.00    -0.195 F 
HETATM   25  F2  DI1 A1000     -10.578  12.476 -36.625  1.00  0.00    -0.195 F 
HETATM   26  C30 DI1 A1000     -11.506  11.794 -38.327  1.00 34.16     0.018 A 
HETATM   27  C31 DI1 A1000     -12.588  11.045 -37.918  1.00 33.93    -0.069 A 
HETATM   28  C32 DI1 A1000     -13.637  10.819 -38.784  1.00 36.25    -0.056 A 
HETATM   29  H31 DI1 A1000     -12.615  10.626 -36.898  1.00  0.00     0.084 H 
HETATM   30  C33 DI1 A1000     -13.601  11.380 -40.042  1.00 33.51     0.041 A 
HETATM   31  H32 DI1 A1000     -14.495  10.198 -38.474  1.00  0.00     0.087 H 
HETATM   32  N37 DI1 A1000     -14.537  11.326 -41.056  1.00 35.18    -0.326 N 
HETATM   33  C34 DI1 A1000     -12.520  12.153 -40.453  1.00 31.98    -0.022 A 
HETATM   34  C36 DI1 A1000     -14.135  12.016 -42.156  1.00 33.97     0.226 A 
HETATM   35  H37 DI1 A1000     -15.425  10.828 -40.988  1.00  0.00     0.169 HD
HETATM   36  C35 DI1 A1000     -12.797  12.624 -41.845  1.00 32.48     0.035 A 
HETATM   37  O38 DI1 A1000     -14.758  12.101 -43.194  1.00 41.19    -0.273 OA
HETATM   38 1H35 DI1 A1000     -11.997  12.384 -42.583  1.00  0.00     0.054 H 
HETATM   39 2H35 DI1 A1000     -12.748  13.730 -41.979  1.00  0.00     0.054 H 
HETATM   40  C39 DI1 A1000     -11.463  12.366 -39.588  1.00 33.39    -0.062 A 
HETATM   41  H39 DI1 A1000     -10.600  12.981 -39.897  1.00  0.00     0.085 H 
HETATM   42  C26 DI1 A1000     -11.266  10.113 -35.114  1.00 31.24    -0.051 C 
HETATM   43 1H26 DI1 A1000     -11.681  11.125 -34.900  1.00  0.00     0.033 H 
HETATM   44 2H26 DI1 A1000     -11.184   9.558 -34.150  1.00  0.00     0.033 H 
HETATM   45 3H26 DI1 A1000     -12.045   9.524 -35.650  1.00  0.00     0.033 H 
HETATM   46  C16 DI1 A1000      -0.726   8.386 -37.279  1.00 34.07     0.418 C 
HETATM   47  F18 DI1 A1000      -0.870   8.672 -36.039  1.00 34.55    -0.166 F 
HETATM   48  F19 DI1 A1000       0.432   8.768 -37.569  1.00 32.66    -0.166 F 
HETATM   49  F17 DI1 A1000      -0.704   7.133 -37.365  1.00 35.34    -0.166 F 
HETATM   50  C09 DI1 A1000      -0.295   8.751 -40.180  1.00 31.99     0.138 C 
HETATM   51 1H09 DI1 A1000       0.310   8.091 -39.513  1.00  0.00     0.087 H 
HETATM   52 2H09 DI1 A1000       0.406   9.613 -40.257  1.00  0.00     0.087 H 
HETATM   53  N06 DI1 A1000      -0.512   8.128 -41.485  1.00 31.70     0.096 N 
HETATM   54  C05 DI1 A1000      -1.194   6.835 -41.362  1.00 31.38     0.138 C 
HETATM   55 1H05 DI1 A1000      -0.640   6.135 -40.695  1.00  0.00     0.082 H 
HETATM   56 2H05 DI1 A1000      -2.137   6.917 -40.771  1.00  0.00     0.082 H 
HETATM   57  C04 DI1 A1000      -1.439   6.232 -42.735  1.00 30.37     0.138 C 
HETATM   58 1H04 DI1 A1000      -1.983   5.259 -42.667  1.00  0.00     0.082 H 
HETATM   59 2H04 DI1 A1000      -2.198   6.809 -43.310  1.00  0.00     0.082 H 
HETATM   60  N03 DI1 A1000      -0.179   6.100 -43.474  1.00 33.96     0.091 N 
HETATM   61  C08 DI1 A1000       0.484   7.404 -43.571  1.00 32.34     0.138 C 
HETATM   62 1H08 DI1 A1000       1.415   7.352 -44.181  1.00  0.00     0.082 H 
HETATM   63 2H08 DI1 A1000      -0.094   8.116 -44.207  1.00  0.00     0.082 H 
HETATM   64  C07 DI1 A1000       0.745   7.965 -42.209  1.00 31.73     0.138 C 
HETATM   65 1H07 DI1 A1000       1.325   8.916 -42.253  1.00  0.00     0.082 H 
HETATM   66 2H07 DI1 A1000       1.479   7.349 -41.638  1.00  0.00     0.082 H 
HETATM   67  C02 DI1 A1000      -0.428   5.607 -44.827  1.00 36.77     0.110 C 
HETATM   68 1H02 DI1 A1000       0.490   5.724 -45.450  1.00  0.00     0.079 H 
HETATM   69 2H02 DI1 A1000      -0.521   4.496 -44.815  1.00  0.00     0.079 H 
HETATM   70  C01 DI1 A1000      -1.587   6.203 -45.521  1.00 38.92    -0.051 C 
HETATM   71 1H01 DI1 A1000      -2.368   5.484 -45.861  1.00  0.00     0.029 H 
HETATM   72 2H01 DI1 A1000      -1.238   6.820 -46.381  1.00  0.00     0.029 H 
HETATM   73 3H01 DI1 A1000      -2.048   6.993 -44.883  1.00  0.00     0.029 H 
ENDMDL
REMARK VINA RESULT:      -9.8      3.351     11.245
REMARK  10 active torsions:
REMARK  status: ('A' for Active; 'I' for Inactive)
REMARK    1  A    between atoms: C09_48  and  C10_1 
REMARK    2  A    between atoms: C13_6  and  C20_10 
REMARK    3  A    between atoms: C15_9  and  C16_44 
REMARK       I    between atoms: C20_10  and  N21_11 
REMARK    4  A    between atoms: C22_14  and  N21_11 
REMARK    5  A    between atoms: C1_23  and  C27_16 
REMARK    6  A    between atoms: C25_18  and  C26_40 
REMARK    7  A    between atoms: C1_23  and  C30_24 
REMARK    8  A    between atoms: C09_48  and  N06_51 
REMARK    9  A    between atoms: C02_65  and  N03_56 
REMARK   10  A    between atoms: C01_68  and  C02_65 
REMARK viewdock state: V
HETATM    1  C10 DI1 A1000     -11.936   5.485 -49.946  1.00 31.19    -0.015 A 
HETATM    2  C11 DI1 A1000     -12.786   5.289 -48.868  1.00 31.89    -0.073 A 
HETATM    3  H11 DI1 A1000     -12.847   6.055 -48.075  1.00  0.00     0.084 H 
HETATM    4  C12 DI1 A1000     -13.556   4.149 -48.773  1.00 34.49    -0.067 A 
HETATM    5  H12 DI1 A1000     -14.237   4.017 -47.915  1.00  0.00     0.085 H 
HETATM    6  C13 DI1 A1000     -13.478   3.167 -49.748  1.00 33.40     0.033 A 
HETATM    7  C14 DI1 A1000     -12.644   3.364 -50.837  1.00 32.40    -0.052 A 
HETATM    8  H14 DI1 A1000     -12.590   2.597 -51.628  1.00  0.00     0.086 H 
HETATM    9  C15 DI1 A1000     -11.877   4.516 -50.945  1.00 31.14     0.056 A 
HETATM   10  C20 DI1 A1000     -14.309   1.935 -49.792  1.00 35.22     0.256 C 
HETATM   11  O40 DI1 A1000     -13.791   0.852 -50.014  1.00 34.16    -0.267 OA
HETATM   12  N21 DI1 A1000     -15.611   2.083 -49.463  1.00 33.72    -0.323 N 
HETATM   13  H21 DI1 A1000     -15.891   2.996 -49.108  1.00  0.00     0.169 HD
HETATM   14  C22 DI1 A1000     -16.623   1.102 -49.561  1.00 30.76     0.035 A 
HETATM   15  C28 DI1 A1000     -17.203   0.879 -50.796  1.00 29.62    -0.044 A 
HETATM   16  C27 DI1 A1000     -18.231  -0.030 -50.921  1.00 29.96     0.026 A 
HETATM   17  H28 DI1 A1000     -16.843   1.426 -51.683  1.00  0.00     0.088 H 
HETATM   18  C25 DI1 A1000     -18.690  -0.757 -49.820  1.00 30.34    -0.049 A 
HETATM   19  C24 DI1 A1000     -18.058  -0.556 -48.605  1.00 31.32    -0.074 A 
HETATM   20  C23 DI1 A1000     -17.045   0.370 -48.465  1.00 30.63    -0.057 A 
HETATM   21  H24 DI1 A1000     -18.370  -1.148 -47.730  1.00  0.00     0.084 H 
HETATM   22  H23 DI1 A1000     -16.572   0.527 -47.481  1.00  0.00     0.086 H 
HETATM   23  C1  DI1 A1000     -18.810   0.142 -52.133  1.00 30.38     0.299 C 
HETATM   24  F1  DI1 A1000     -19.232   1.293 -52.088  1.00  0.00    -0.195 F 
HETATM   25  F2  DI1 A1000     -19.811  -0.563 -52.109  1.00  0.00    -0.195 F 
HETATM   26  C30 DI1 A1000     -18.331   0.032 -53.404  1.00 34.16     0.018 A 
HETATM   27  C31 DI1 A1000     -17.296  -0.855 -53.606  1.00 33.93    -0.069 A 
HETATM   28  C32 DI1 A1000     -16.554  -0.798 -54.767  1.00 36.25    -0.056 A 
HETATM   29  H31 DI1 A1000     -17.061  -1.612 -52.838  1.00  0.00     0.084 H 
HETATM   30  C33 DI1 A1000     -16.886   0.131 -55.729  1.00 33.51     0.041 A 
HETATM   31  H32 DI1 A1000     -15.706  -1.487 -54.924  1.00  0.00     0.087 H 
HETATM   32  N37 DI1 A1000     -16.321   0.351 -56.970  1.00 35.18    -0.326 N 
HETATM   33  C34 DI1 A1000     -17.942   1.016 -55.540  1.00 31.98    -0.022 A 
HETATM   34  C36 DI1 A1000     -16.935   1.365 -57.635  1.00 33.97     0.226 A 
HETATM   35  H37 DI1 A1000     -15.537  -0.184 -57.344  1.00  0.00     0.169 HD
HETATM   36  C35 DI1 A1000     -18.051   1.868 -56.763  1.00 32.48     0.035 A 
HETATM   37  O38 DI1 A1000     -16.614   1.779 -58.730  1.00 41.19    -0.273 OA
HETATM   38 1H35 DI1 A1000     -18.026   2.965 -56.568  1.00  0.00     0.054 H 
HETATM   39 2H35 DI1 A1000     -19.055   1.860 -57.247  1.00  0.00     0.054 H 
HETATM   40  C39 DI1 A1000     -18.675   0.966 -54.369  1.00 33.39    -0.062 A 
HETATM   41  H39 DI1 A1000     -19.519   1.658 -54.204  1.00  0.00     0.085 H 
HETATM   42  C26 DI1 A1000     -19.833  -1.725 -49.935  1.00 31.24    -0.051 C 
HETATM   43 1H26 DI1 A1000     -19.855  -2.651 -49.316  1.00  0.00     0.033 H 
HETATM   44 2H26 DI1 A1000     -19.934  -2.018 -51.006  1.00  0.00     0.033 H 
HETATM   45 3H26 DI1 A1000     -20.782  -1.167 -49.762  1.00  0.00     0.033 H 
HETATM   46  C16 DI1 A1000     -10.979   4.650 -52.127  1.00 34.07     0.418 C 
HETATM   47  F18 DI1 A1000     -11.055   5.797 -52.692  1.00 34.55    -0.166 F 
HETATM   48  F19 DI1 A1000     -11.240   3.822 -53.031  1.00 32.66    -0.166 F 
HETATM   49  F17 DI1 A1000      -9.772   4.467 -51.834  1.00 35.34    -0.166 F 
HETATM   50  C09 DI1 A1000     -11.048   6.703 -50.002  1.00 31.99     0.138 C 
HETATM   51 1H09 DI1 A1000     -11.649   7.639 -50.086  1.00  0.00     0.087 H 
HETATM   52 2H09 DI1 A1000     -10.498   6.758 -50.969  1.00  0.00     0.087 H 
HETATM   53  N06 DI1 A1000     -10.128   6.766 -48.867  1.00 31.70     0.096 N 
HETATM   54  C05 DI1 A1000     -10.360   7.960 -48.045  1.00 31.38     0.138 C 
HETATM   55 1H05 DI1 A1000     -10.288   8.896 -48.645  1.00  0.00     0.082 H 
HETATM   56 2H05 DI1 A1000     -11.426   8.046 -47.730  1.00  0.00     0.082 H 
HETATM   57  C04 DI1 A1000      -9.416   7.976 -46.855  1.00 30.37     0.138 C 
HETATM   58 1H04 DI1 A1000      -9.593   8.862 -46.201  1.00  0.00     0.082 H 
HETATM   59 2H04 DI1 A1000      -9.660   7.173 -46.123  1.00  0.00     0.082 H 
HETATM   60  N03 DI1 A1000      -8.020   7.900 -47.301  1.00 33.96     0.091 N 
HETATM   61  C08 DI1 A1000      -7.823   6.705 -48.127  1.00 32.34     0.138 C 
HETATM   62 1H08 DI1 A1000      -6.758   6.582 -48.431  1.00  0.00     0.082 H 
HETATM   63 2H08 DI1 A1000      -7.935   5.768 -47.532  1.00  0.00     0.082 H 
HETATM   64  C07 DI1 A1000      -8.738   6.724 -49.310  1.00 31.73     0.138 C 
HETATM   65 1H07 DI1 A1000      -8.547   5.869 -49.999  1.00  0.00     0.082 H 
HETATM   66 2H07 DI1 A1000      -8.498   7.558 -50.009  1.00  0.00     0.082 H 
HETATM   67  C02 DI1 A1000      -7.120   7.822 -46.154  1.00 36.77     0.110 C 
HETATM   68 1H02 DI1 A1000      -7.646   7.357 -45.287  1.00  0.00     0.079 H 
HETATM   69 2H02 DI1 A1000      -6.330   7.057 -46.342  1.00  0.00     0.079 H 
HETATM   70  C01 DI1 A1000      -6.498   9.096 -45.740  1.00 38.92    -0.051 C 
HETATM   71 1H01 DI1 A1000      -7.189   9.967 -45.659  1.00  0.00     0.029 H 
HETATM   72 2H01 DI1 A1000      -5.651   9.343 -46.421  1.00  0.00     0.029 H 
HETATM   73 3H01 DI1 A1000      -5.947   8.956 -44.780  1.00  0.00     0.029 H 
ENDMDL
