REMARK VINA RESULT:     -12.5      0.000      0.000
REMARK  10 active torsions:
REMARK  status: ('A' for Active; 'I' for Inactive)
REMARK    1  A    between atoms: C01_1  and  C02_5 
REMARK    2  A    between atoms: C02_5  and  N03_8 
REMARK    3  A    between atoms: C09_22  and  N06_15 
REMARK    4  A    between atoms: C09_22  and  C10_25 
REMARK    5  A    between atoms: C13_30  and  C20_38 
REMARK    6  A    between atoms: C15_33  and  C16_34 
REMARK       I    between atoms: C20_38  and  N21_39 
REMARK    7  A    between atoms: C22_41  and  N21_39 
REMARK    8  A    between atoms: C25_46  and  C26_47 
REMARK    9  A    between atoms: C27_51  and  O29_54 
REMARK   10  A    between atoms: C30_55  and  O29_54 
REMARK viewdock state: V
HETATM    1  C10 DI1 A1000      -3.309   4.786 -39.639  1.00 31.19    -0.015 A 
HETATM    2  C11 DI1 A1000      -4.207   5.815 -39.399  1.00 31.89    -0.073 A 
ATOM      3  H11 DI1 A1000      -3.844   6.768 -38.977  1.00  0.00     0.084 H 
HETATM    4  C12 DI1 A1000      -5.549   5.664 -39.680  1.00 34.49    -0.067 A 
ATOM      5  H12 DI1 A1000      -6.246   6.499 -39.496  1.00  0.00     0.085 H 
HETATM    6  C13 DI1 A1000      -6.027   4.467 -40.191  1.00 33.40     0.033 A 
HETATM    7  C14 DI1 A1000      -5.133   3.440 -40.450  1.00 32.40    -0.052 A 
ATOM      8  H14 DI1 A1000      -5.502   2.491 -40.875  1.00  0.00     0.086 H 
HETATM    9  C15 DI1 A1000      -3.780   3.592 -40.182  1.00 31.14     0.056 A 
HETATM   10  C20 DI1 A1000      -7.433   4.211 -40.601  1.00 35.22     0.256 C 
HETATM   11  N21 DI1 A1000      -8.140   5.287 -41.009  1.00 33.72    -0.323 N 
ATOM     12  H21 DI1 A1000      -7.692   6.196 -40.899  1.00  0.00     0.169 HD
HETATM   13  O40 DI1 A1000      -7.920   3.100 -40.465  1.00 34.16    -0.267 OA
HETATM   14  C22 DI1 A1000      -9.436   5.283 -41.571  1.00 30.76     0.037 A 
HETATM   15  C28 DI1 A1000     -10.017   4.065 -41.872  1.00 29.62    -0.024 A 
HETATM   16  C27 DI1 A1000     -11.256   4.022 -42.472  1.00 29.96     0.084 A 
ATOM     17  H28 DI1 A1000      -9.489   3.127 -41.631  1.00  0.00     0.091 H 
HETATM   18  C25 DI1 A1000     -11.958   5.193 -42.764  1.00 30.34    -0.028 A 
HETATM   19  C24 DI1 A1000     -11.380   6.399 -42.405  1.00 31.32    -0.072 A 
HETATM   20  C23 DI1 A1000     -10.129   6.453 -41.827  1.00 30.63    -0.057 A 
ATOM     21  H24 DI1 A1000     -11.932   7.336 -42.584  1.00  0.00     0.084 H 
ATOM     22  H23 DI1 A1000      -9.681   7.428 -41.570  1.00  0.00     0.086 H 
HETATM   23  O29 DI1 A1000     -11.471   2.761 -42.919  1.00 30.38    -0.310 OA
HETATM   24  C30 DI1 A1000     -12.536   1.918 -42.815  1.00 34.16     0.076 A 
HETATM   25  C31 DI1 A1000     -13.382   2.113 -41.744  1.00 33.93    -0.048 A 
HETATM   26  C32 DI1 A1000     -14.282   1.130 -41.388  1.00 36.25    -0.054 A 
ATOM     27  H31 DI1 A1000     -13.340   3.055 -41.172  1.00  0.00     0.087 H 
HETATM   28  C33 DI1 A1000     -14.344  -0.025 -42.137  1.00 33.51     0.041 A 
ATOM     29  H32 DI1 A1000     -14.944   1.267 -40.516  1.00  0.00     0.087 H 
HETATM   30  N37 DI1 A1000     -15.177  -1.119 -41.999  1.00 35.18    -0.326 N 
HETATM   31  C34 DI1 A1000     -13.506  -0.219 -43.230  1.00 31.98    -0.020 A 
HETATM   32  C36 DI1 A1000     -14.932  -2.065 -42.943  1.00 33.97     0.226 A 
ATOM     33  H37 DI1 A1000     -15.891  -1.205 -41.275  1.00  0.00     0.169 HD
HETATM   34  C35 DI1 A1000     -13.836  -1.548 -43.830  1.00 32.48     0.035 A 
HETATM   35  O38 DI1 A1000     -15.503  -3.134 -43.026  1.00 41.19    -0.273 OA
ATOM     36 2H35 DI1 A1000     -14.094  -1.516 -44.914  1.00  0.00     0.054 H 
ATOM     37 1H35 DI1 A1000     -12.966  -2.236 -43.939  1.00  0.00     0.054 H 
HETATM   38  C39 DI1 A1000     -12.595   0.761 -43.576  1.00 33.39    -0.042 A 
ATOM     39  H39 DI1 A1000     -11.925   0.625 -44.443  1.00  0.00     0.088 H 
HETATM   40  C26 DI1 A1000     -13.294   5.161 -43.450  1.00 31.24    -0.049 C 
ATOM     41 3H26 DI1 A1000     -14.062   5.541 -42.737  1.00  0.00     0.033 H 
ATOM     42 2H26 DI1 A1000     -13.302   5.953 -44.235  1.00  0.00     0.033 H 
ATOM     43 1H26 DI1 A1000     -13.676   4.217 -43.903  1.00  0.00     0.033 H 
HETATM   44  C16 DI1 A1000      -2.879   2.438 -40.456  1.00 34.07     0.418 C 
HETATM   45  F17 DI1 A1000      -2.401   1.943 -39.405  1.00 35.34    -0.166 F 
HETATM   46  F18 DI1 A1000      -1.887   2.737 -41.210  1.00 34.55    -0.166 F 
HETATM   47  F19 DI1 A1000      -3.461   1.496 -41.043  1.00 32.66    -0.166 F 
HETATM   48  C09 DI1 A1000      -1.857   4.941 -39.261  1.00 31.99     0.138 C 
ATOM     49 2H09 DI1 A1000      -1.382   3.951 -39.069  1.00  0.00     0.087 H 
ATOM     50 1H09 DI1 A1000      -1.244   5.265 -40.135  1.00  0.00     0.087 H 
HETATM   51  N06 DI1 A1000      -1.677   5.843 -38.125  1.00 31.70     0.096 N 
HETATM   52  C05 DI1 A1000      -0.315   6.387 -38.074  1.00 31.38     0.138 C 
HETATM   53  C04 DI1 A1000      -0.171   7.348 -36.907  1.00 30.37     0.138 C 
ATOM     54 2H05 DI1 A1000      -0.020   6.860 -39.040  1.00  0.00     0.082 H 
ATOM     55 1H05 DI1 A1000       0.453   5.579 -38.043  1.00  0.00     0.082 H 
HETATM   56  N03 DI1 A1000      -0.528   6.689 -35.646  1.00 33.96     0.091 N 
ATOM     57 2H04 DI1 A1000      -0.758   8.282 -37.066  1.00  0.00     0.082 H 
ATOM     58 1H04 DI1 A1000       0.850   7.796 -36.865  1.00  0.00     0.082 H 
HETATM   59  C08 DI1 A1000      -1.888   6.148 -35.732  1.00 32.34     0.138 C 
HETATM   60  C07 DI1 A1000      -2.000   5.180 -36.866  1.00 31.73     0.138 C 
ATOM     61 2H08 DI1 A1000      -2.652   6.958 -35.802  1.00  0.00     0.082 H 
ATOM     62 1H08 DI1 A1000      -2.215   5.694 -34.768  1.00  0.00     0.082 H 
ATOM     63 2H07 DI1 A1000      -1.375   4.271 -36.701  1.00  0.00     0.082 H 
ATOM     64 1H07 DI1 A1000      -3.000   4.689 -36.899  1.00  0.00     0.082 H 
HETATM   65  C02 DI1 A1000      -0.479   7.641 -34.539  1.00 36.77     0.110 C 
ATOM     66 2H02 DI1 A1000      -0.225   7.109 -33.592  1.00  0.00     0.079 H 
ATOM     67 1H02 DI1 A1000      -1.507   7.997 -34.297  1.00  0.00     0.079 H 
HETATM   68  C01 DI1 A1000       0.423   8.794 -34.726  1.00 38.92    -0.051 C 
ATOM     69 3H01 DI1 A1000       0.627   8.945 -35.812  1.00  0.00     0.029 H 
ATOM     70 2H01 DI1 A1000      -0.117   9.741 -34.492  1.00  0.00     0.029 H 
ATOM     71 1H01 DI1 A1000       1.383   8.754 -34.160  1.00  0.00     0.029 H 
ENDMDL
