REMARK  8 active torsions:
REMARK  status: ('A' for Active; 'I' for Inactive)
REMARK    1  A    between atoms: CAA_1  and  CAY_51 
REMARK    2  A    between atoms: CAB_2  and  CBF_65 
REMARK    3  A    between atoms: CAC_6  and  NBG_67 
REMARK    4  A    between atoms: CAR_41  and  CAZ_52 
REMARK    5  A    between atoms: CAR_41  and  NBH_68 
REMARK    6  A    between atoms: CAX_50  and  CBB_61 
REMARK       I    between atoms: CAX_50  and  NAW_57 
REMARK    7  A    between atoms: CBA_60  and  NAW_57 
REMARK    8  A    between atoms: CBD_63  and  NBI_69 
ROOT
HETATM    1  CAX 5X1 A1001      45.131 -22.466 -29.373  1.00 40.69     0.256 C 
HETATM    2  NAW 5X1 A1001      46.411 -21.748 -29.647  1.00 39.78    -0.323 N 
ATOM      3  HAW 5X1 A1001      47.038 -22.124 -30.359  1.00  0.00     0.169 HD
HETATM    4  OAD 5X1 A1001      44.332 -22.046 -28.501  1.00 43.55    -0.267 OA
ENDROOT
BRANCH   1   5
HETATM    5  CBB 5X1 A1001      44.744 -23.736 -30.164  1.00 37.26     0.033 C 
HETATM    6  CAK 5X1 A1001      43.419 -24.245 -30.098  1.00 33.19    -0.053 C 
HETATM    7  CAY 5X1 A1001      43.143 -25.500 -30.678  1.00 35.05     0.049 C 
ATOM      8  HAK 5X1 A1001      42.620 -23.668 -29.602  1.00  0.00     0.086 H 
HETATM    9  CAJ 5X1 A1001      44.105 -26.032 -31.587  1.00 37.35    -0.060 C 
HETATM   10  CAZ 5X1 A1001      45.088 -25.172 -32.137  1.00 37.22    -0.028 C 
ATOM     11  HAJ 5X1 A1001      44.084 -27.101 -31.859  1.00  0.00     0.085 H 
HETATM   12  CAL 5X1 A1001      45.479 -24.073 -31.357  1.00 38.14    -0.060 C 
ATOM     13  HAL 5X1 A1001      46.350 -23.466 -31.657  1.00  0.00     0.086 H 
BRANCH   7  14
HETATM   14  CAA 5X1 A1001      41.834 -26.237 -30.375  1.00 37.13     0.417 C 
HETATM   15  F01 5X1 A1001      40.846 -25.331 -30.297  1.00 41.00    -0.166 F 
HETATM   16  F03 5X1 A1001      41.531 -27.111 -31.326  1.00 35.48    -0.166 F 
HETATM   17  F02 5X1 A1001      41.934 -26.927 -29.220  1.00 36.52    -0.166 F 
ENDBRANCH   7  14
BRANCH  10  18
HETATM   18  CAR 5X1 A1001      45.993 -25.681 -33.278  1.00 33.44     0.137 C 
ATOM     19 2HAR 5X1 A1001      45.626 -26.654 -33.681  1.00  0.00     0.087 H 
ATOM     20 1HAR 5X1 A1001      45.878 -25.056 -34.194  1.00  0.00     0.087 H 
BRANCH  18  21
HETATM   21  NBH 5X1 A1001      47.379 -25.770 -32.876  1.00 31.62     0.096 N 
HETATM   22  CAP 5X1 A1001      47.607 -26.626 -31.777  1.00 31.23     0.138 C 
HETATM   23  CAN 5X1 A1001      49.051 -26.549 -31.294  1.00 32.34     0.138 C 
ATOM     24 2HAP 5X1 A1001      47.311 -27.675 -32.010  1.00  0.00     0.082 H 
ATOM     25 1HAP 5X1 A1001      46.889 -26.424 -30.948  1.00  0.00     0.082 H 
HETATM   26  NBG 5X1 A1001      49.910 -26.920 -32.365  1.00 34.87     0.087 N 
ATOM     27 2HAN 5X1 A1001      49.306 -25.550 -30.869  1.00  0.00     0.082 H 
ATOM     28 1HAN 5X1 A1001      49.227 -27.157 -30.376  1.00  0.00     0.082 H 
HETATM   29  CAO 5X1 A1001      49.696 -26.088 -33.564  1.00 34.63     0.138 C 
HETATM   30  CAQ 5X1 A1001      48.232 -26.109 -33.983  1.00 31.96     0.138 C 
ATOM     31 2HAO 5X1 A1001      50.369 -26.389 -34.401  1.00  0.00     0.082 H 
ATOM     32 1HAO 5X1 A1001      50.068 -25.047 -33.416  1.00  0.00     0.082 H 
ATOM     33 2HAQ 5X1 A1001      48.046 -25.451 -34.864  1.00  0.00     0.082 H 
ATOM     34 1HAQ 5X1 A1001      47.947 -27.086 -34.439  1.00  0.00     0.082 H 
BRANCH  26  35
HETATM   35  CAC 5X1 A1001      51.278 -26.869 -31.967  1.00 33.60     0.095 C 
ATOM     36 3HAC 5X1 A1001      51.548 -25.870 -31.551  1.00  0.00     0.071 H 
ATOM     37 2HAC 5X1 A1001      51.464 -27.487 -31.058  1.00  0.00     0.071 H 
ATOM     38 1HAC 5X1 A1001      51.951 -27.160 -32.807  1.00  0.00     0.071 H 
ENDBRANCH  26  35
ENDBRANCH  18  21
ENDBRANCH  10  18
ENDBRANCH   1   5
BRANCH   2  39
HETATM   39  CBA 5X1 A1001      46.799 -20.554 -28.954  1.00 41.50     0.032 A 
HETATM   40  CAE 5X1 A1001      47.637 -19.613 -29.594  1.00 45.24    -0.073 A 
HETATM   41  CAF 5X1 A1001      48.032 -18.405 -28.949  1.00 48.98    -0.026 A 
ATOM     42  HAE 5X1 A1001      47.994 -19.818 -30.617  1.00  0.00     0.080 H 
HETATM   43  CBE 5X1 A1001      47.563 -18.103 -27.526  1.00 48.86    -0.063 A 
ATOM     44 2HAF 5X1 A1001      49.145 -18.342 -28.972  1.00  0.00     0.045 H 
ATOM     45 1HAF 5X1 A1001      47.745 -17.548 -29.602  1.00  0.00     0.045 H 
HETATM   46  CBC 5X1 A1001      46.761 -18.985 -26.917  1.00 46.40    -0.035 A 
HETATM   47  CBF 5X1 A1001      48.052 -16.828 -26.887  1.00 48.00    -0.019 C 
HETATM   48  CAM 5X1 A1001      46.367 -20.276 -27.635  1.00 44.24    -0.050 A 
HETATM   49  CAS 5X1 A1001      46.201 -18.824 -25.453  1.00 44.80     0.019 C 
ATOM     50  HAM 5X1 A1001      45.730 -21.009 -27.112  1.00  0.00     0.087 H 
HETATM   51  NBI 5X1 A1001      46.564 -17.488 -24.980  1.00 44.82    -0.374 N 
ATOM     52 2HAS 5X1 A1001      46.543 -19.634 -24.767  1.00  0.00     0.071 H 
ATOM     53 1HAS 5X1 A1001      45.106 -19.025 -25.384  1.00  0.00     0.071 H 
HETATM   54  CAT 5X1 A1001      47.812 -16.929 -25.406  1.00 46.06     0.002 C 
ATOM     55 2HAT 5X1 A1001      48.650 -17.492 -24.933  1.00  0.00     0.065 H 
ATOM     56 1HAT 5X1 A1001      47.946 -15.925 -24.940  1.00  0.00     0.065 H 
ATOM     57  HBF 5X1 A1001      49.155 -16.778 -27.044  1.00  0.00     0.049 H 
BRANCH  51  58
HETATM   58  CBD 5X1 A1001      46.045 -17.161 -23.649  1.00 45.56     0.061 A 
HETATM   59  CAH 5X1 A1001      46.871 -17.092 -22.501  1.00 43.92     0.005 A 
HETATM   60  NAU 5X1 A1001      46.318 -16.842 -21.258  1.00 45.64    -0.360 N 
ATOM     61  HAH 5X1 A1001      47.960 -17.238 -22.598  1.00  0.00     0.114 H 
HETATM   62  CAG 5X1 A1001      44.987 -16.664 -21.110  1.00 46.45     0.040 A 
ATOM     63  HAU 5X1 A1001      46.925 -16.791 -20.440  1.00  0.00     0.166 HD
HETATM   64  NAV 5X1 A1001      44.162 -16.742 -22.203  1.00 46.08    -0.360 N 
ATOM     65  HAG 5X1 A1001      44.565 -16.456 -20.112  1.00  0.00     0.140 H 
HETATM   66  CAI 5X1 A1001      44.676 -16.981 -23.400  1.00 47.22     0.005 A 
ATOM     67  HAV 5X1 A1001      43.156 -16.616 -22.094  1.00  0.00     0.166 HD
ATOM     68  HAI 5X1 A1001      43.983 -17.042 -24.256  1.00  0.00     0.114 H 
ENDBRANCH  51  58
BRANCH  47  69
HETATM   69  CAB 5X1 A1001      47.463 -15.613 -27.492  1.00 48.09    -0.068 C 
ATOM     70 3HAB 5X1 A1001      46.374 -15.543 -27.261  1.00  0.00     0.028 H 
ATOM     71 2HAB 5X1 A1001      47.821 -14.696 -26.969  1.00  0.00     0.028 H 
ATOM     72 1HAB 5X1 A1001      47.641 -15.538 -28.590  1.00  0.00     0.028 H 
ENDBRANCH  47  69
ENDBRANCH   2  39
TORSDOF 8
