MODEL 1
REMARK VINA RESULT:      -9.6      0.000      0.000
REMARK  8 active torsions:
REMARK  status: ('A' for Active; 'I' for Inactive)
REMARK    1  A    between atoms: CAA_1  and  CAY_51 
REMARK    2  A    between atoms: CAB_2  and  CBF_65 
REMARK    3  A    between atoms: CAC_6  and  NBG_67 
REMARK    4  A    between atoms: CAR_41  and  CAZ_52 
REMARK    5  A    between atoms: CAR_41  and  NBH_68 
REMARK    6  A    between atoms: CAX_50  and  CBB_61 
REMARK       I    between atoms: CAX_50  and  NAW_57 
REMARK    7  A    between atoms: CBA_60  and  NAW_57 
REMARK    8  A    between atoms: CBD_63  and  NBI_69 
ROOT
HETATM    1  CAX 5X1 A1001       5.002 -17.307 -27.717  1.00 40.69     0.256 C 
HETATM    2  NAW 5X1 A1001       4.842 -17.453 -29.194  1.00 39.78    -0.323 N 
ATOM      3  HAW 5X1 A1001       4.837 -16.610 -29.769  1.00  0.00     0.169 HD
HETATM    4  OAD 5X1 A1001       5.007 -18.315 -26.968  1.00 43.55    -0.267 OA
ENDROOT
BRANCH   1   5
HETATM    5  CBB 5X1 A1001       5.183 -15.917 -27.067  1.00 37.26     0.033 C 
HETATM    6  CAK 5X1 A1001       5.809 -14.865 -27.789  1.00 33.19    -0.053 C 
HETATM    7  CAY 5X1 A1001       6.125 -13.670 -27.111  1.00 35.05     0.049 C 
ATOM      8  HAK 5X1 A1001       6.044 -14.982 -28.860  1.00  0.00     0.086 H 
HETATM    9  CAJ 5X1 A1001       5.502 -13.444 -25.848  1.00 37.35    -0.060 C 
HETATM   10  CAZ 5X1 A1001       4.365 -14.210 -25.489  1.00 37.22    -0.028 C 
ATOM     11  HAJ 5X1 A1001       5.901 -12.681 -25.158  1.00  0.00     0.085 H 
HETATM   12  CAL 5X1 A1001       4.272 -15.501 -26.030  1.00 38.14    -0.060 C 
ATOM     13  HAL 5X1 A1001       3.502 -16.199 -25.662  1.00  0.00     0.086 H 
BRANCH   7  14
HETATM   14  CAA 5X1 A1001       7.066 -12.635 -27.737  1.00 37.13     0.417 C 
HETATM   15  F01 5X1 A1001       7.172 -12.897 -29.050  1.00 41.00    -0.166 F 
HETATM   16  F03 5X1 A1001       6.605 -11.399 -27.590  1.00 35.48    -0.166 F 
HETATM   17  F02 5X1 A1001       8.279 -12.678 -27.148  1.00 36.52    -0.166 F 
ENDBRANCH   7  14
BRANCH  10  18
HETATM   18  CAR 5X1 A1001       3.558 -13.830 -24.231  1.00 33.44     0.137 C 
ATOM     19 2HAR 5X1 A1001       2.767 -13.081 -24.469  1.00  0.00     0.087 H 
ATOM     20 1HAR 5X1 A1001       2.907 -14.673 -23.899  1.00  0.00     0.087 H 
BRANCH  18  21
HETATM   21  NBH 5X1 A1001       4.408 -13.372 -23.155  1.00 31.62     0.096 N 
HETATM   22  CAP 5X1 A1001       4.082 -12.087 -22.670  1.00 31.23     0.138 C 
HETATM   23  CAN 5X1 A1001       5.110 -11.589 -21.660  1.00 32.34     0.138 C 
ATOM     24 2HAP 5X1 A1001       3.051 -12.061 -22.247  1.00  0.00     0.082 H 
ATOM     25 1HAP 5X1 A1001       3.945 -11.359 -23.504  1.00  0.00     0.082 H 
HETATM   26  NBG 5X1 A1001       5.160 -12.504 -20.572  1.00 34.87     0.087 N 
ATOM     27 2HAN 5X1 A1001       6.111 -11.418 -22.120  1.00  0.00     0.082 H 
ATOM     28 1HAN 5X1 A1001       4.911 -10.543 -21.329  1.00  0.00     0.082 H 
HETATM   29  CAO 5X1 A1001       5.459 -13.879 -21.015  1.00 34.63     0.138 C 
HETATM   30  CAQ 5X1 A1001       4.473 -14.329 -22.084  1.00 31.96     0.138 C 
ATOM     31 2HAO 5X1 A1001       5.491 -14.591 -20.157  1.00  0.00     0.082 H 
ATOM     32 1HAO 5X1 A1001       6.515 -13.982 -21.357  1.00  0.00     0.082 H 
ATOM     33 2HAQ 5X1 A1001       4.711 -15.352 -22.459  1.00  0.00     0.082 H 
ATOM     34 1HAQ 5X1 A1001       3.465 -14.537 -21.655  1.00  0.00     0.082 H 
BRANCH  26  35
HETATM   35  CAC 5X1 A1001       6.107 -12.084 -19.592  1.00 33.60     0.095 C 
ATOM     36 3HAC 5X1 A1001       6.533 -11.083 -19.835  1.00  0.00     0.071 H 
ATOM     37 2HAC 5X1 A1001       5.612 -11.828 -18.627  1.00  0.00     0.071 H 
ATOM     38 1HAC 5X1 A1001       6.906 -12.849 -19.454  1.00  0.00     0.071 H 
ENDBRANCH  26  35
ENDBRANCH  18  21
ENDBRANCH  10  18
ENDBRANCH   1   5
BRANCH   2  39
HETATM   39  CBA 5X1 A1001       4.696 -18.724 -29.841  1.00 41.50     0.032 A 
HETATM   40  CAE 5X1 A1001       3.445 -19.382 -29.817  1.00 45.24    -0.073 A 
HETATM   41  CAF 5X1 A1001       3.250 -20.638 -30.462  1.00 48.98    -0.026 A 
ATOM     42  HAE 5X1 A1001       2.600 -18.913 -29.286  1.00  0.00     0.080 H 
HETATM   43  CBE 5X1 A1001       4.409 -21.316 -31.193  1.00 48.86    -0.063 A 
ATOM     44 2HAF 5X1 A1001       2.837 -21.356 -29.716  1.00  0.00     0.045 H 
ATOM     45 1HAF 5X1 A1001       2.397 -20.539 -31.174  1.00  0.00     0.045 H 
HETATM   46  CBC 5X1 A1001       5.594 -20.694 -31.228  1.00 46.40    -0.035 A 
HETATM   47  CBF 5X1 A1001       4.146 -22.663 -31.817  1.00 48.00    -0.019 C 
HETATM   48  CAM 5X1 A1001       5.770 -19.354 -30.514  1.00 44.24    -0.050 A 
HETATM   49  CAS 5X1 A1001       6.884 -21.265 -31.930  1.00 44.80     0.019 C 
ATOM     50  HAM 5X1 A1001       6.758 -18.865 -30.525  1.00  0.00     0.087 H 
HETATM   51  NBI 5X1 A1001       6.498 -22.470 -32.664  1.00 44.82    -0.374 N 
ATOM     52 2HAS 5X1 A1001       7.722 -21.442 -31.217  1.00  0.00     0.071 H 
ATOM     53 1HAS 5X1 A1001       7.395 -20.511 -32.574  1.00  0.00     0.071 H 
HETATM   54  CAT 5X1 A1001       5.473 -23.305 -32.113  1.00 46.06     0.002 C 
ATOM     55 2HAT 5X1 A1001       5.857 -23.803 -31.193  1.00  0.00     0.065 H 
ATOM     56 1HAT 5X1 A1001       5.318 -24.187 -32.778  1.00  0.00     0.065 H 
ATOM     57  HBF 5X1 A1001       3.634 -23.292 -31.051  1.00  0.00     0.049 H 
BRANCH  51  58
HETATM   58  CBD 5X1 A1001       7.586 -23.077 -33.435  1.00 45.56     0.061 A 
HETATM   59  CAH 5X1 A1001       7.598 -24.447 -33.793  1.00 43.92     0.005 A 
HETATM   60  NAU 5X1 A1001       8.682 -24.983 -34.466  1.00 45.64    -0.360 N 
ATOM     61  HAH 5X1 A1001       6.740 -25.091 -33.534  1.00  0.00     0.114 H 
HETATM   62  CAG 5X1 A1001       9.747 -24.219 -34.791  1.00 46.45     0.040 A 
ATOM     63  HAU 5X1 A1001       8.676 -25.970 -34.721  1.00  0.00     0.166 HD
HETATM   64  NAV 5X1 A1001       9.769 -22.892 -34.442  1.00 46.08    -0.360 N 
ATOM     65  HAG 5X1 A1001      10.599 -24.661 -35.336  1.00  0.00     0.140 H 
HETATM   66  CAI 5X1 A1001       8.739 -22.365 -33.797  1.00 47.22     0.005 A 
ATOM     67  HAV 5X1 A1001      10.575 -22.314 -34.678  1.00  0.00     0.166 HD
ATOM     68  HAI 5X1 A1001       8.792 -21.297 -33.527  1.00  0.00     0.114 H 
ENDBRANCH  51  58
BRANCH  47  69
HETATM   69  CAB 5X1 A1001       3.256 -22.591 -32.998  1.00 48.09    -0.068 C 
ATOM     70 3HAB 5X1 A1001       3.805 -22.197 -33.885  1.00  0.00     0.028 H 
ATOM     71 2HAB 5X1 A1001       3.011 -23.612 -33.372  1.00  0.00     0.028 H 
ATOM     72 1HAB 5X1 A1001       2.327 -22.003 -32.813  1.00  0.00     0.028 H 
ENDBRANCH  47  69
ENDBRANCH   2  39
TORSDOF 8
ENDMDL
MODEL 2
REMARK VINA RESULT:      -9.2      6.568      8.457
REMARK  8 active torsions:
REMARK  status: ('A' for Active; 'I' for Inactive)
REMARK    1  A    between atoms: CAA_1  and  CAY_51 
REMARK    2  A    between atoms: CAB_2  and  CBF_65 
REMARK    3  A    between atoms: CAC_6  and  NBG_67 
REMARK    4  A    between atoms: CAR_41  and  CAZ_52 
REMARK    5  A    between atoms: CAR_41  and  NBH_68 
REMARK    6  A    between atoms: CAX_50  and  CBB_61 
REMARK       I    between atoms: CAX_50  and  NAW_57 
REMARK    7  A    between atoms: CBA_60  and  NAW_57 
REMARK    8  A    between atoms: CBD_63  and  NBI_69 
ROOT
HETATM    1  CAX 5X1 A1001       8.711 -14.770 -25.966  1.00 40.69     0.256 C 
HETATM    2  NAW 5X1 A1001       9.505 -15.842 -25.296  1.00 39.78    -0.323 N 
ATOM      3  HAW 5X1 A1001       9.009 -16.640 -24.898  1.00  0.00     0.169 HD
HETATM    4  OAD 5X1 A1001       9.277 -13.766 -26.463  1.00 43.55    -0.267 OA
ENDROOT
BRANCH   1   5
HETATM    5  CBB 5X1 A1001       7.173 -14.871 -26.082  1.00 37.26     0.033 C 
HETATM    6  CAK 5X1 A1001       6.567 -16.074 -26.534  1.00 33.19    -0.053 C 
HETATM    7  CAY 5X1 A1001       5.183 -16.077 -26.805  1.00 35.05     0.049 C 
ATOM      8  HAK 5X1 A1001       7.168 -16.989 -26.671  1.00  0.00     0.086 H 
HETATM    9  CAJ 5X1 A1001       4.408 -14.995 -26.292  1.00 37.35    -0.060 C 
HETATM   10  CAZ 5X1 A1001       4.952 -14.176 -25.271  1.00 37.22    -0.028 C 
ATOM     11  HAJ 5X1 A1001       3.397 -14.797 -26.686  1.00  0.00     0.085 H 
HETATM   12  CAL 5X1 A1001       6.348 -14.037 -25.244  1.00 38.14    -0.060 C 
ATOM     13  HAL 5X1 A1001       6.816 -13.289 -24.581  1.00  0.00     0.086 H 
BRANCH   7  14
HETATM   14  CAA 5X1 A1001       4.535 -17.230 -27.580  1.00 37.13     0.417 C 
HETATM   15  F01 5X1 A1001       5.061 -18.384 -27.141  1.00 41.00    -0.166 F 
HETATM   16  F03 5X1 A1001       3.222 -17.267 -27.396  1.00 35.48    -0.166 F 
HETATM   17  F02 5X1 A1001       4.746 -17.088 -28.905  1.00 36.52    -0.166 F 
ENDBRANCH   7  14
BRANCH  10  18
HETATM   18  CAR 5X1 A1001       4.051 -13.144 -24.561  1.00 33.44     0.137 C 
ATOM     19 2HAR 5X1 A1001       4.204 -12.121 -24.978  1.00  0.00     0.087 H 
ATOM     20 1HAR 5X1 A1001       2.980 -13.288 -24.834  1.00  0.00     0.087 H 
BRANCH  18  21
HETATM   21  NBH 5X1 A1001       4.232 -13.158 -23.127  1.00 31.62     0.096 N 
HETATM   22  CAP 5X1 A1001       4.888 -12.017 -22.617  1.00 31.23     0.138 C 
HETATM   23  CAN 5X1 A1001       5.201 -12.164 -21.132  1.00 32.34     0.138 C 
ATOM     24 2HAP 5X1 A1001       4.307 -11.088 -22.821  1.00  0.00     0.082 H 
ATOM     25 1HAP 5X1 A1001       5.806 -11.779 -23.205  1.00  0.00     0.082 H 
HETATM   26  NBG 5X1 A1001       3.981 -12.359 -20.427  1.00 34.87     0.087 N 
ATOM     27 2HAN 5X1 A1001       5.944 -12.971 -20.930  1.00  0.00     0.082 H 
ATOM     28 1HAN 5X1 A1001       5.791 -11.306 -20.733  1.00  0.00     0.082 H 
HETATM   29  CAO 5X1 A1001       3.222 -13.517 -20.937  1.00 34.63     0.138 C 
HETATM   30  CAQ 5X1 A1001       2.993 -13.395 -22.438  1.00 31.96     0.138 C 
ATOM     31 2HAO 5X1 A1001       2.265 -13.660 -20.384  1.00  0.00     0.082 H 
ATOM     32 1HAO 5X1 A1001       3.715 -14.482 -20.673  1.00  0.00     0.082 H 
ATOM     33 2HAQ 5X1 A1001       2.456 -14.283 -22.846  1.00  0.00     0.082 H 
ATOM     34 1HAQ 5X1 A1001       2.233 -12.614 -22.677  1.00  0.00     0.082 H 
BRANCH  26  35
HETATM   35  CAC 5X1 A1001       4.214 -12.500 -19.028  1.00 33.60     0.095 C 
ATOM     36 3HAC 5X1 A1001       4.408 -13.562 -18.748  1.00  0.00     0.071 H 
ATOM     37 2HAC 5X1 A1001       5.195 -12.064 -18.730  1.00  0.00     0.071 H 
ATOM     38 1HAC 5X1 A1001       3.374 -12.066 -18.436  1.00  0.00     0.071 H 
ENDBRANCH  26  35
ENDBRANCH  18  21
ENDBRANCH  10  18
ENDBRANCH   1   5
BRANCH   2  39
HETATM   39  CBA 5X1 A1001      10.935 -15.801 -25.186  1.00 41.50     0.032 A 
HETATM   40  CAE 5X1 A1001      11.533 -15.240 -24.035  1.00 45.24    -0.073 A 
HETATM   41  CAF 5X1 A1001      12.949 -15.195 -23.877  1.00 48.98    -0.026 A 
ATOM     42  HAE 5X1 A1001      10.890 -14.827 -23.241  1.00  0.00     0.080 H 
HETATM   43  CBE 5X1 A1001      13.864 -15.747 -24.970  1.00 48.86    -0.063 A 
ATOM     44 2HAF 5X1 A1001      13.246 -14.140 -23.671  1.00  0.00     0.045 H 
ATOM     45 1HAF 5X1 A1001      13.211 -15.694 -22.915  1.00  0.00     0.045 H 
HETATM   46  CBC 5X1 A1001      13.304 -16.289 -26.059  1.00 46.40    -0.035 A 
HETATM   47  CBF 5X1 A1001      15.352 -15.630 -24.759  1.00 48.00    -0.019 C 
HETATM   48  CAM 5X1 A1001      11.782 -16.309 -26.200  1.00 44.24    -0.050 A 
HETATM   49  CAS 5X1 A1001      14.107 -16.891 -27.274  1.00 44.80     0.019 C 
ATOM     50  HAM 5X1 A1001      11.332 -16.731 -27.115  1.00  0.00     0.087 H 
HETATM   51  NBI 5X1 A1001      15.523 -16.909 -26.908  1.00 44.82    -0.374 N 
ATOM     52 2HAS 5X1 A1001      13.913 -16.352 -28.230  1.00  0.00     0.071 H 
ATOM     53 1HAS 5X1 A1001      13.728 -17.891 -27.589  1.00  0.00     0.071 H 
HETATM   54  CAT 5X1 A1001      16.029 -15.853 -26.083  1.00 46.06     0.002 C 
ATOM     55 2HAT 5X1 A1001      16.032 -14.900 -26.662  1.00  0.00     0.065 H 
ATOM     56 1HAT 5X1 A1001      17.121 -16.002 -25.920  1.00  0.00     0.065 H 
ATOM     57  HBF 5X1 A1001      15.563 -14.579 -24.449  1.00  0.00     0.049 H 
BRANCH  51  58
HETATM   58  CBD 5X1 A1001      16.396 -17.515 -27.918  1.00 45.56     0.061 A 
HETATM   59  CAH 5X1 A1001      16.336 -17.168 -29.289  1.00 43.92     0.005 A 
HETATM   60  NAU 5X1 A1001      17.139 -17.817 -30.209  1.00 45.64    -0.360 N 
ATOM     61  HAH 5X1 A1001      15.646 -16.376 -29.626  1.00  0.00     0.114 H 
HETATM   62  CAG 5X1 A1001      17.990 -18.794 -29.825  1.00 46.45     0.040 A 
ATOM     63  HAU 5X1 A1001      17.088 -17.554 -31.193  1.00  0.00     0.166 HD
HETATM   64  NAV 5X1 A1001      18.056 -19.161 -28.505  1.00 46.08    -0.360 N 
ATOM     65  HAG 5X1 A1001      18.629 -19.294 -30.571  1.00  0.00     0.140 H 
HETATM   66  CAI 5X1 A1001      17.293 -18.549 -27.612  1.00 47.22     0.005 A 
ATOM     67  HAV 5X1 A1001      18.691 -19.904 -28.212  1.00  0.00     0.166 HD
ATOM     68  HAI 5X1 A1001      17.369 -18.873 -26.560  1.00  0.00     0.114 H 
ENDBRANCH  51  58
BRANCH  47  69
HETATM   69  CAB 5X1 A1001      15.857 -16.517 -23.688  1.00 48.09    -0.068 C 
ATOM     70 3HAB 5X1 A1001      16.973 -16.519 -23.668  1.00  0.00     0.028 H 
ATOM     71 2HAB 5X1 A1001      15.657 -16.080 -22.682  1.00  0.00     0.028 H 
ATOM     72 1HAB 5X1 A1001      15.460 -17.557 -23.755  1.00  0.00     0.028 H 
ENDBRANCH  47  69
ENDBRANCH   2  39
TORSDOF 8
ENDMDL
MODEL 3
REMARK VINA RESULT:      -8.9      7.528      9.766
REMARK  8 active torsions:
REMARK  status: ('A' for Active; 'I' for Inactive)
REMARK    1  A    between atoms: CAA_1  and  CAY_51 
REMARK    2  A    between atoms: CAB_2  and  CBF_65 
REMARK    3  A    between atoms: CAC_6  and  NBG_67 
REMARK    4  A    between atoms: CAR_41  and  CAZ_52 
REMARK    5  A    between atoms: CAR_41  and  NBH_68 
REMARK    6  A    between atoms: CAX_50  and  CBB_61 
REMARK       I    between atoms: CAX_50  and  NAW_57 
REMARK    7  A    between atoms: CBA_60  and  NAW_57 
REMARK    8  A    between atoms: CBD_63  and  NBI_69 
ROOT
HETATM    1  CAX 5X1 A1001      10.980 -15.926 -25.180  1.00 40.69     0.256 C 
HETATM    2  NAW 5X1 A1001      12.260 -15.160 -25.130  1.00 39.78    -0.323 N 
ATOM      3  HAW 5X1 A1001      12.217 -14.143 -25.056  1.00  0.00     0.169 HD
HETATM    4  OAD 5X1 A1001      10.983 -17.177 -25.278  1.00 43.55    -0.267 OA
ENDROOT
BRANCH   1   5
HETATM    5  CBB 5X1 A1001       9.615 -15.206 -25.096  1.00 37.26     0.033 C 
HETATM    6  CAK 5X1 A1001       9.346 -14.303 -24.032  1.00 33.19    -0.053 C 
HETATM    7  CAY 5X1 A1001       8.036 -13.804 -23.878  1.00 35.05     0.049 C 
ATOM      8  HAK 5X1 A1001      10.148 -13.997 -23.339  1.00  0.00     0.086 H 
HETATM    9  CAJ 5X1 A1001       7.141 -13.953 -24.979  1.00 37.35    -0.060 C 
HETATM   10  CAZ 5X1 A1001       7.664 -14.254 -26.261  1.00 37.22    -0.028 C 
ATOM     11  HAJ 5X1 A1001       6.054 -13.835 -24.833  1.00  0.00     0.085 H 
HETATM   12  CAL 5X1 A1001       8.862 -14.983 -26.304  1.00 38.14    -0.060 C 
ATOM     13  HAL 5X1 A1001       9.228 -15.385 -27.264  1.00  0.00     0.086 H 
BRANCH   7  14
HETATM   14  CAA 5X1 A1001       7.612 -13.088 -22.592  1.00 37.13     0.417 C 
HETATM   15  F01 5X1 A1001       7.042 -13.988 -21.774  1.00 41.00    -0.166 F 
HETATM   16  F03 5X1 A1001       8.649 -12.547 -21.966  1.00 35.48    -0.166 F 
HETATM   17  F02 5X1 A1001       6.750 -12.088 -22.868  1.00 36.52    -0.166 F 
ENDBRANCH   7  14
BRANCH  10  18
HETATM   18  CAR 5X1 A1001       6.736 -14.204 -27.493  1.00 33.44     0.137 C 
ATOM     19 2HAR 5X1 A1001       5.952 -13.419 -27.377  1.00  0.00     0.087 H 
ATOM     20 1HAR 5X1 A1001       7.267 -13.793 -28.383  1.00  0.00     0.087 H 
BRANCH  18  21
HETATM   21  NBH 5X1 A1001       6.147 -15.492 -27.784  1.00 31.62     0.096 N 
HETATM   22  CAP 5X1 A1001       4.748 -15.542 -27.600  1.00 31.23     0.138 C 
HETATM   23  CAN 5X1 A1001       4.211 -16.960 -27.757  1.00 32.34     0.138 C 
ATOM     24 2HAP 5X1 A1001       4.223 -14.830 -28.278  1.00  0.00     0.082 H 
ATOM     25 1HAP 5X1 A1001       4.451 -15.100 -26.621  1.00  0.00     0.082 H 
HETATM   26  NBG 5X1 A1001       4.530 -17.427 -29.062  1.00 34.87     0.087 N 
ATOM     27 2HAN 5X1 A1001       4.576 -17.646 -26.958  1.00  0.00     0.082 H 
ATOM     28 1HAN 5X1 A1001       3.120 -17.030 -27.534  1.00  0.00     0.082 H 
HETATM   29  CAO 5X1 A1001       5.978 -17.364 -29.337  1.00 34.63     0.138 C 
HETATM   30  CAQ 5X1 A1001       6.515 -15.960 -29.093  1.00 31.96     0.138 C 
ATOM     31 2HAO 5X1 A1001       6.219 -17.726 -30.364  1.00  0.00     0.082 H 
ATOM     32 1HAO 5X1 A1001       6.542 -18.129 -28.753  1.00  0.00     0.082 H 
ATOM     33 2HAQ 5X1 A1001       7.617 -15.906 -29.256  1.00  0.00     0.082 H 
ATOM     34 1HAQ 5X1 A1001       6.191 -15.250 -29.891  1.00  0.00     0.082 H 
BRANCH  26  35
HETATM   35  CAC 5X1 A1001       4.046 -18.752 -29.266  1.00 33.60     0.095 C 
ATOM     36 3HAC 5X1 A1001       3.702 -19.215 -28.312  1.00  0.00     0.071 H 
ATOM     37 2HAC 5X1 A1001       3.075 -18.754 -29.815  1.00  0.00     0.071 H 
ATOM     38 1HAC 5X1 A1001       4.809 -19.383 -29.778  1.00  0.00     0.071 H 
ENDBRANCH  26  35
ENDBRANCH  18  21
ENDBRANCH  10  18
ENDBRANCH   1   5
BRANCH   2  39
HETATM   39  CBA 5X1 A1001      13.548 -15.788 -25.181  1.00 41.50     0.032 A 
HETATM   40  CAE 5X1 A1001      14.312 -15.919 -23.999  1.00 45.24    -0.073 A 
HETATM   41  CAF 5X1 A1001      15.588 -16.553 -24.001  1.00 48.98    -0.026 A 
ATOM     42  HAE 5X1 A1001      13.911 -15.521 -23.052  1.00  0.00     0.080 H 
HETATM   43  CBE 5X1 A1001      16.173 -17.101 -25.303  1.00 48.86    -0.063 A 
ATOM     44 2HAF 5X1 A1001      16.329 -15.852 -23.551  1.00  0.00     0.045 H 
ATOM     45 1HAF 5X1 A1001      15.572 -17.377 -23.250  1.00  0.00     0.045 H 
HETATM   46  CBC 5X1 A1001      15.451 -16.990 -26.425  1.00 46.40    -0.035 A 
HETATM   47  CBF 5X1 A1001      17.546 -17.722 -25.243  1.00 48.00    -0.019 C 
HETATM   48  CAM 5X1 A1001      14.091 -16.293 -26.387  1.00 44.24    -0.050 A 
HETATM   49  CAS 5X1 A1001      15.917 -17.494 -27.843  1.00 44.80     0.019 C 
ATOM     50  HAM 5X1 A1001      13.518 -16.181 -27.323  1.00  0.00     0.087 H 
HETATM   51  NBI 5X1 A1001      17.161 -18.244 -27.664  1.00 44.82    -0.374 N 
ATOM     52 2HAS 5X1 A1001      16.012 -16.669 -28.587  1.00  0.00     0.071 H 
ATOM     53 1HAS 5X1 A1001      15.130 -18.081 -28.373  1.00  0.00     0.071 H 
HETATM   54  CAT 5X1 A1001      18.074 -17.817 -26.647  1.00 46.06     0.002 C 
ATOM     55 2HAT 5X1 A1001      18.525 -16.840 -26.940  1.00  0.00     0.065 H 
ATOM     56 1HAT 5X1 A1001      18.975 -18.474 -26.660  1.00  0.00     0.065 H 
ATOM     57  HBF 5X1 A1001      18.206 -17.017 -24.685  1.00  0.00     0.049 H 
BRANCH  51  58
HETATM   58  CBD 5X1 A1001      17.682 -18.843 -28.896  1.00 45.56     0.061 A 
HETATM   59  CAH 5X1 A1001      18.732 -19.793 -28.900  1.00 43.92     0.005 A 
HETATM   60  NAU 5X1 A1001      19.229 -20.279 -30.096  1.00 45.64    -0.360 N 
ATOM     61  HAH 5X1 A1001      19.156 -20.148 -27.945  1.00  0.00     0.114 H 
HETATM   62  CAG 5X1 A1001      18.731 -19.858 -31.280  1.00 46.45     0.040 A 
ATOM     63  HAU 5X1 A1001      19.982 -20.966 -30.085  1.00  0.00     0.166 HD
HETATM   64  NAV 5X1 A1001      17.725 -18.926 -31.305  1.00 46.08    -0.360 N 
ATOM     65  HAG 5X1 A1001      19.134 -20.263 -32.224  1.00  0.00     0.140 H 
HETATM   66  CAI 5X1 A1001      17.239 -18.451 -30.168  1.00 47.22     0.005 A 
ATOM     67  HAV 5X1 A1001      17.353 -18.600 -32.197  1.00  0.00     0.166 HD
ATOM     68  HAI 5X1 A1001      16.434 -17.699 -30.226  1.00  0.00     0.114 H 
ENDBRANCH  51  58
BRANCH  47  69
HETATM   69  CAB 5X1 A1001      17.567 -19.014 -24.522  1.00 48.09    -0.068 C 
ATOM     70 3HAB 5X1 A1001      17.450 -18.857 -23.424  1.00  0.00     0.028 H 
ATOM     71 2HAB 5X1 A1001      16.639 -19.596 -24.725  1.00  0.00     0.028 H 
ATOM     72 1HAB 5X1 A1001      18.474 -19.624 -24.740  1.00  0.00     0.028 H 
ENDBRANCH  47  69
ENDBRANCH   2  39
TORSDOF 8
ENDMDL
MODEL 4
REMARK VINA RESULT:      -8.9      7.000      9.849
REMARK  8 active torsions:
REMARK  status: ('A' for Active; 'I' for Inactive)
REMARK    1  A    between atoms: CAA_1  and  CAY_51 
REMARK    2  A    between atoms: CAB_2  and  CBF_65 
REMARK    3  A    between atoms: CAC_6  and  NBG_67 
REMARK    4  A    between atoms: CAR_41  and  CAZ_52 
REMARK    5  A    between atoms: CAR_41  and  NBH_68 
REMARK    6  A    between atoms: CAX_50  and  CBB_61 
REMARK       I    between atoms: CAX_50  and  NAW_57 
REMARK    7  A    between atoms: CBA_60  and  NAW_57 
REMARK    8  A    between atoms: CBD_63  and  NBI_69 
ROOT
HETATM    1  CAX 5X1 A1001       9.821 -13.947 -22.451  1.00 40.69     0.256 C 
HETATM    2  NAW 5X1 A1001      10.247 -15.074 -23.332  1.00 39.78    -0.323 N 
ATOM      3  HAW 5X1 A1001       9.530 -15.691 -23.715  1.00  0.00     0.169 HD
HETATM    4  OAD 5X1 A1001      10.667 -13.167 -21.950  1.00 43.55    -0.267 OA
ENDROOT
BRANCH   1   5
HETATM    5  CBB 5X1 A1001       8.328 -13.697 -22.142  1.00 37.26     0.033 C 
HETATM    6  CAK 5X1 A1001       7.951 -12.887 -21.037  1.00 33.19    -0.053 C 
HETATM    7  CAY 5X1 A1001       6.590 -12.827 -20.671  1.00 35.05     0.049 C 
ATOM      8  HAK 5X1 A1001       8.709 -12.315 -20.475  1.00  0.00     0.086 H 
HETATM    9  CAJ 5X1 A1001       5.632 -13.295 -21.618  1.00 37.35    -0.060 C 
HETATM   10  CAZ 5X1 A1001       6.019 -13.462 -22.971  1.00 37.22    -0.028 C 
ATOM     11  HAJ 5X1 A1001       4.600 -13.524 -21.301  1.00  0.00     0.085 H 
HETATM   12  CAL 5X1 A1001       7.366 -13.771 -23.213  1.00 38.14    -0.060 C 
ATOM     13  HAL 5X1 A1001       7.690 -14.072 -24.224  1.00  0.00     0.086 H 
BRANCH   7  14
HETATM   14  CAA 5X1 A1001       6.162 -12.235 -19.324  1.00 37.13     0.417 C 
HETATM   15  F01 5X1 A1001       5.601 -13.210 -18.592  1.00 41.00    -0.166 F 
HETATM   16  F03 5X1 A1001       7.196 -11.744 -18.653  1.00 35.48    -0.166 F 
HETATM   17  F02 5X1 A1001       5.292 -11.221 -19.506  1.00 36.52    -0.166 F 
ENDBRANCH   7  14
BRANCH  10  18
HETATM   18  CAR 5X1 A1001       4.946 -13.757 -24.040  1.00 33.44     0.137 C 
ATOM     19 2HAR 5X1 A1001       4.131 -14.397 -23.627  1.00  0.00     0.087 H 
ATOM     20 1HAR 5X1 A1001       4.351 -12.845 -24.278  1.00  0.00     0.087 H 
BRANCH  18  21
HETATM   21  NBH 5X1 A1001       5.513 -14.339 -25.236  1.00 31.62     0.096 N 
HETATM   22  CAP 5X1 A1001       4.852 -15.505 -25.679  1.00 31.23     0.138 C 
HETATM   23  CAN 5X1 A1001       5.592 -16.165 -26.837  1.00 32.34     0.138 C 
ATOM     24 2HAP 5X1 A1001       3.790 -15.295 -25.942  1.00  0.00     0.082 H 
ATOM     25 1HAP 5X1 A1001       4.684 -16.222 -24.842  1.00  0.00     0.082 H 
HETATM   26  NBG 5X1 A1001       5.680 -15.236 -27.911  1.00 34.87     0.087 N 
ATOM     27 2HAN 5X1 A1001       6.589 -16.563 -26.535  1.00  0.00     0.082 H 
ATOM     28 1HAN 5X1 A1001       5.128 -17.131 -27.146  1.00  0.00     0.082 H 
HETATM   29  CAO 5X1 A1001       6.327 -13.975 -27.504  1.00 34.63     0.138 C 
HETATM   30  CAQ 5X1 A1001       5.627 -13.372 -26.294  1.00 31.96     0.138 C 
ATOM     31 2HAO 5X1 A1001       6.387 -13.250 -28.350  1.00  0.00     0.082 H 
ATOM     32 1HAO 5X1 A1001       7.420 -14.111 -27.323  1.00  0.00     0.082 H 
ATOM     33 2HAQ 5X1 A1001       6.130 -12.439 -25.948  1.00  0.00     0.082 H 
ATOM     34 1HAQ 5X1 A1001       4.635 -12.939 -26.564  1.00  0.00     0.082 H 
BRANCH  26  35
HETATM   35  CAC 5X1 A1001       6.362 -15.804 -29.026  1.00 33.60     0.095 C 
ATOM     36 3HAC 5X1 A1001       7.201 -15.154 -29.369  1.00  0.00     0.071 H 
ATOM     37 2HAC 5X1 A1001       6.953 -16.702 -28.732  1.00  0.00     0.071 H 
ATOM     38 1HAC 5X1 A1001       5.654 -16.032 -29.856  1.00  0.00     0.071 H 
ENDBRANCH  26  35
ENDBRANCH  18  21
ENDBRANCH  10  18
ENDBRANCH   1   5
BRANCH   2  39
HETATM   39  CBA 5X1 A1001      11.619 -15.329 -23.663  1.00 41.50     0.032 A 
HETATM   40  CAE 5X1 A1001      12.530 -15.695 -22.647  1.00 45.24    -0.073 A 
HETATM   41  CAF 5X1 A1001      13.897 -15.975 -22.934  1.00 48.98    -0.026 A 
ATOM     42  HAE 5X1 A1001      12.174 -15.766 -21.605  1.00  0.00     0.080 H 
HETATM   43  CBE 5X1 A1001      14.420 -15.871 -24.367  1.00 48.86    -0.063 A 
ATOM     44 2HAF 5X1 A1001      14.532 -15.332 -22.282  1.00  0.00     0.045 H 
ATOM     45 1HAF 5X1 A1001      14.136 -16.993 -22.548  1.00  0.00     0.045 H 
HETATM   46  CBC 5X1 A1001      13.561 -15.534 -25.337  1.00 46.40    -0.035 A 
HETATM   47  CBF 5X1 A1001      15.885 -16.139 -24.595  1.00 48.00    -0.019 C 
HETATM   48  CAM 5X1 A1001      12.103 -15.229 -24.990  1.00 44.24    -0.050 A 
HETATM   49  CAS 5X1 A1001      13.944 -15.376 -26.857  1.00 44.80     0.019 C 
ATOM     50  HAM 5X1 A1001      11.412 -14.924 -25.793  1.00  0.00     0.087 H 
HETATM   51  NBI 5X1 A1001      15.325 -15.832 -27.020  1.00 44.82    -0.374 N 
ATOM     52 2HAS 5X1 A1001      13.782 -14.341 -27.239  1.00  0.00     0.071 H 
ATOM     53 1HAS 5X1 A1001      13.232 -15.897 -27.539  1.00  0.00     0.071 H 
HETATM   54  CAT 5X1 A1001      16.250 -15.601 -25.951  1.00 46.06     0.002 C 
ATOM     55 2HAT 5X1 A1001      16.458 -14.508 -25.873  1.00  0.00     0.065 H 
ATOM     56 1HAT 5X1 A1001      17.256 -15.984 -26.244  1.00  0.00     0.065 H 
ATOM     57  HBF 5X1 A1001      16.454 -15.549 -23.838  1.00  0.00     0.049 H 
BRANCH  51  58
HETATM   58  CBD 5X1 A1001      15.804 -15.814 -28.405  1.00 45.56     0.061 A 
HETATM   59  CAH 5X1 A1001      15.868 -14.628 -29.177  1.00 43.92     0.005 A 
HETATM   60  NAU 5X1 A1001      16.268 -14.679 -30.500  1.00 45.64    -0.360 N 
ATOM     61  HAH 5X1 A1001      15.599 -13.661 -28.721  1.00  0.00     0.114 H 
HETATM   62  CAG 5X1 A1001      16.599 -15.851 -31.084  1.00 46.45     0.040 A 
ATOM     63  HAU 5X1 A1001      16.314 -13.817 -31.043  1.00  0.00     0.166 HD
HETATM   64  NAV 5X1 A1001      16.529 -17.016 -30.364  1.00 46.08    -0.360 N 
ATOM     65  HAG 5X1 A1001      16.925 -15.870 -32.138  1.00  0.00     0.140 H 
HETATM   66  CAI 5X1 A1001      16.148 -16.985 -29.096  1.00 47.22     0.005 A 
ATOM     67  HAV 5X1 A1001      16.771 -17.904 -30.804  1.00  0.00     0.166 HD
ATOM     68  HAI 5X1 A1001      16.099 -17.941 -28.549  1.00  0.00     0.114 H 
ENDBRANCH  51  58
BRANCH  47  69
HETATM   69  CAB 5X1 A1001      16.250 -17.561 -24.414  1.00 48.09    -0.068 C 
ATOM     70 3HAB 5X1 A1001      16.994 -17.880 -25.182  1.00  0.00     0.028 H 
ATOM     71 2HAB 5X1 A1001      16.864 -17.699 -23.494  1.00  0.00     0.028 H 
ATOM     72 1HAB 5X1 A1001      15.369 -18.244 -24.409  1.00  0.00     0.028 H 
ENDBRANCH  47  69
ENDBRANCH   2  39
TORSDOF 8
ENDMDL
MODEL 5
REMARK VINA RESULT:      -8.8      6.854      8.847
REMARK  8 active torsions:
REMARK  status: ('A' for Active; 'I' for Inactive)
REMARK    1  A    between atoms: CAA_1  and  CAY_51 
REMARK    2  A    between atoms: CAB_2  and  CBF_65 
REMARK    3  A    between atoms: CAC_6  and  NBG_67 
REMARK    4  A    between atoms: CAR_41  and  CAZ_52 
REMARK    5  A    between atoms: CAR_41  and  NBH_68 
REMARK    6  A    between atoms: CAX_50  and  CBB_61 
REMARK       I    between atoms: CAX_50  and  NAW_57 
REMARK    7  A    between atoms: CBA_60  and  NAW_57 
REMARK    8  A    between atoms: CBD_63  and  NBI_69 
ROOT
HETATM    1  CAX 5X1 A1001       8.055 -13.899 -22.960  1.00 40.69     0.256 C 
HETATM    2  NAW 5X1 A1001       9.196 -14.493 -22.203  1.00 39.78    -0.323 N 
ATOM      3  HAW 5X1 A1001       9.043 -14.779 -21.235  1.00  0.00     0.169 HD
HETATM    4  OAD 5X1 A1001       8.198 -13.525 -24.150  1.00 43.55    -0.267 OA
ENDROOT
BRANCH   1   5
HETATM    5  CBB 5X1 A1001       6.662 -13.741 -22.310  1.00 37.26     0.033 C 
HETATM    6  CAK 5X1 A1001       5.504 -13.609 -23.122  1.00 33.19    -0.053 C 
HETATM    7  CAY 5X1 A1001       4.277 -13.283 -22.508  1.00 35.05     0.049 C 
ATOM      8  HAK 5X1 A1001       5.563 -13.760 -24.213  1.00  0.00     0.086 H 
HETATM    9  CAJ 5X1 A1001       4.186 -13.438 -21.093  1.00 37.35    -0.060 C 
HETATM   10  CAZ 5X1 A1001       5.158 -14.218 -20.418  1.00 37.22    -0.028 C 
ATOM     11  HAJ 5X1 A1001       3.369 -12.956 -20.530  1.00  0.00     0.085 H 
HETATM   12  CAL 5X1 A1001       6.438 -14.274 -20.990  1.00 38.14    -0.060 C 
ATOM     13  HAL 5X1 A1001       7.273 -14.726 -20.429  1.00  0.00     0.086 H 
BRANCH   7  14
HETATM   14  CAA 5X1 A1001       3.076 -12.826 -23.342  1.00 37.13     0.417 C 
HETATM   15  F01 5X1 A1001       3.275 -13.205 -24.615  1.00 41.00    -0.166 F 
HETATM   16  F03 5X1 A1001       1.944 -13.369 -22.913  1.00 35.48    -0.166 F 
HETATM   17  F02 5X1 A1001       2.927 -11.487 -23.266  1.00 36.52    -0.166 F 
ENDBRANCH   7  14
BRANCH  10  18
HETATM   18  CAR 5X1 A1001       4.952 -14.571 -18.930  1.00 33.44     0.137 C 
ATOM     19 2HAR 5X1 A1001       4.245 -13.860 -18.441  1.00  0.00     0.087 H 
ATOM     20 1HAR 5X1 A1001       4.364 -15.511 -18.815  1.00  0.00     0.087 H 
BRANCH  18  21
HETATM   21  NBH 5X1 A1001       6.203 -14.644 -18.209  1.00 31.62     0.096 N 
HETATM   22  CAP 5X1 A1001       6.306 -13.731 -17.138  1.00 31.23     0.138 C 
HETATM   23  CAN 5X1 A1001       7.702 -13.737 -16.526  1.00 32.34     0.138 C 
ATOM     24 2HAP 5X1 A1001       5.523 -13.917 -16.367  1.00  0.00     0.082 H 
ATOM     25 1HAP 5X1 A1001       6.002 -12.704 -17.448  1.00  0.00     0.082 H 
HETATM   26  NBG 5X1 A1001       7.987 -15.048 -16.054  1.00 34.87     0.087 N 
ATOM     27 2HAN 5X1 A1001       8.479 -13.359 -17.231  1.00  0.00     0.082 H 
ATOM     28 1HAN 5X1 A1001       7.824 -12.963 -15.733  1.00  0.00     0.082 H 
HETATM   29  CAO 5X1 A1001       7.859 -16.062 -17.118  1.00 34.63     0.138 C 
HETATM   30  CAQ 5X1 A1001       6.488 -15.986 -17.776  1.00 31.96     0.138 C 
ATOM     31 2HAO 5X1 A1001       8.078 -17.088 -16.739  1.00  0.00     0.082 H 
ATOM     32 1HAO 5X1 A1001       8.681 -15.981 -17.867  1.00  0.00     0.082 H 
ATOM     33 2HAQ 5X1 A1001       6.389 -16.719 -18.610  1.00  0.00     0.082 H 
ATOM     34 1HAQ 5X1 A1001       5.687 -16.382 -17.108  1.00  0.00     0.082 H 
BRANCH  26  35
HETATM   35  CAC 5X1 A1001       9.285 -15.111 -15.467  1.00 33.60     0.095 C 
ATOM     36 3HAC 5X1 A1001       9.956 -14.315 -15.865  1.00  0.00     0.071 H 
ATOM     37 2HAC 5X1 A1001       9.266 -14.798 -14.397  1.00  0.00     0.071 H 
ATOM     38 1HAC 5X1 A1001       9.732 -16.125 -15.590  1.00  0.00     0.071 H 
ENDBRANCH  26  35
ENDBRANCH  18  21
ENDBRANCH  10  18
ENDBRANCH   1   5
BRANCH   2  39
HETATM   39  CBA 5X1 A1001      10.498 -14.680 -22.774  1.00 41.50     0.032 A 
HETATM   40  CAE 5X1 A1001      11.638 -14.196 -22.094  1.00 45.24    -0.073 A 
HETATM   41  CAF 5X1 A1001      12.952 -14.376 -22.616  1.00 48.98    -0.026 A 
ATOM     42  HAE 5X1 A1001      11.509 -13.666 -21.135  1.00  0.00     0.080 H 
HETATM   43  CBE 5X1 A1001      13.159 -15.095 -23.949  1.00 48.86    -0.063 A 
ATOM     44 2HAF 5X1 A1001      13.446 -13.378 -22.675  1.00  0.00     0.045 H 
ATOM     45 1HAF 5X1 A1001      13.571 -14.887 -21.842  1.00  0.00     0.045 H 
HETATM   46  CBC 5X1 A1001      12.084 -15.565 -24.594  1.00 46.40    -0.035 A 
HETATM   47  CBF 5X1 A1001      14.570 -15.214 -24.465  1.00 48.00    -0.019 C 
HETATM   48  CAM 5X1 A1001      10.689 -15.343 -24.010  1.00 44.24    -0.050 A 
HETATM   49  CAS 5X1 A1001      12.130 -16.318 -25.978  1.00 44.80     0.019 C 
ATOM     50  HAM 5X1 A1001       9.809 -15.709 -24.565  1.00  0.00     0.087 H 
HETATM   51  NBI 5X1 A1001      13.534 -16.556 -26.312  1.00 44.82    -0.374 N 
ATOM     52 2HAS 5X1 A1001      11.578 -15.778 -26.783  1.00  0.00     0.071 H 
ATOM     53 1HAS 5X1 A1001      11.520 -17.252 -25.982  1.00  0.00     0.071 H 
HETATM   54  CAT 5X1 A1001      14.503 -15.575 -25.923  1.00 46.06     0.002 C 
ATOM     55 2HAT 5X1 A1001      14.356 -14.650 -26.527  1.00  0.00     0.065 H 
ATOM     56 1HAT 5X1 A1001      15.513 -15.894 -26.272  1.00  0.00     0.065 H 
ATOM     57  HBF 5X1 A1001      15.038 -14.204 -24.392  1.00  0.00     0.049 H 
BRANCH  51  58
HETATM   58  CBD 5X1 A1001      13.736 -17.318 -27.547  1.00 45.56     0.061 A 
HETATM   59  CAH 5X1 A1001      12.872 -18.364 -27.951  1.00 43.92     0.005 A 
HETATM   60  NAU 5X1 A1001      13.146 -19.094 -29.093  1.00 45.64    -0.360 N 
ATOM     61  HAH 5X1 A1001      11.975 -18.598 -27.352  1.00  0.00     0.114 H 
HETATM   62  CAG 5X1 A1001      14.240 -18.832 -29.842  1.00 46.45     0.040 A 
ATOM     63  HAU 5X1 A1001      12.513 -19.842 -29.375  1.00  0.00     0.166 HD
HETATM   64  NAV 5X1 A1001      15.103 -17.835 -29.464  1.00 46.08    -0.360 N 
ATOM     65  HAG 5X1 A1001      14.438 -19.418 -30.756  1.00  0.00     0.140 H 
HETATM   66  CAI 5X1 A1001      14.854 -17.127 -28.373  1.00 47.22     0.005 A 
ATOM     67  HAV 5X1 A1001      15.934 -17.639 -30.023  1.00  0.00     0.166 HD
ATOM     68  HAI 5X1 A1001      15.572 -16.337 -28.096  1.00  0.00     0.114 H 
ENDBRANCH  51  58
BRANCH  47  69
HETATM   69  CAB 5X1 A1001      15.402 -16.145 -23.670  1.00 48.09    -0.068 C 
ATOM     70 3HAB 5X1 A1001      16.483 -16.015 -23.911  1.00  0.00     0.028 H 
ATOM     71 2HAB 5X1 A1001      15.415 -15.847 -22.596  1.00  0.00     0.028 H 
ATOM     72 1HAB 5X1 A1001      15.096 -17.211 -23.782  1.00  0.00     0.028 H 
ENDBRANCH  47  69
ENDBRANCH   2  39
TORSDOF 8
ENDMDL
